file 21195294 1592482299                                        
version 2
run Slotted1Persistant-9-20200618-14:10:58-18991
attr configname Slotted1Persistant
attr datetime 20200618-14:10:58
attr experiment Slotted1Persistant
attr inifile omnetpp.ini
attr iterationvars ""
attr iterationvarsf ""
attr measurement ""
attr network FloodingNetwork
attr processid 18991
attr repetition 9
attr replication #9
attr resultdir results
attr runnumber 9
attr seedset 9
param *.node[*].applType "\"Slotted1Persistant\""
param **.debug false
param **.coreDebug false
param *.playgroundSizeX 3000m
param *.playgroundSizeY 2500m
param *.playgroundSizeZ 50m
param *.annotations.draw true
param *.obstacles.debug true
param *.obstacles.obstacles "xmldoc(\"config.xml\", \"//AnalogueModel[@type='SimpleObstacleShadowing']/obstacles\")"
param *.world.useTorus false
param *.world.use2D false
param *.manager.updateInterval 0.1s
param *.manager.host "\"localhost\""
param *.manager.port 9999
param *.manager.moduleType "\"org.car2x.veins.nodes.Car\""
param *.manager.moduleName "\"node\""
param *.manager.autoShutdown true
param *.manager.margin 25
param *.manager.launchConfig "xmldoc(\"manhattan.launchd.xml\")"
param *.vehicleInserter.numVehicles 150
param *.connectionManager.sendDirect true
param *.connectionManager.maxInterfDist 100m
param *.connectionManager.drawMaxIntfDist false
param *.**.nic.mac1609_4.useServiceChannel true
param *.**.nic.mac1609_4.txPower 20mW
param *.**.nic.mac1609_4.bitrate 6Mbps
param *.**.nic.phy80211p.minPowerLevel -110dBm
param *.**.nic.phy80211p.useNoiseFloor true
param *.**.nic.phy80211p.noiseFloor -98dBm
param *.**.nic.phy80211p.decider "xmldoc(\"config.xml\")"
param *.**.nic.phy80211p.analogueModels "xmldoc(\"config.xml\")"
param *.**.nic.phy80211p.usePropagationDelay true
param *.**.nic.phy80211p.antenna "xmldoc(\"antenna.xml\", \"/root/Antenna[@id='monopole']\")"
param *.rsu.applType "\"FloodingRSU\""
param *.rsu.appl.headerLength 80bit
param *.rsu[*].appl.debug false
param *.rsu[*].appl.headerLength "88 bit"
param *.rsu[*].appl.dataLengthBits "512 bit"
param *.rsu[*].appl.sendBeacons false
param *.rsu[*].appl.dataOnSch true
param *.rsu[*].appl.sendData true
param *.rsu.nic.phy80211p.useNoiseFloor true
param *.rsu.nic.phy80211p.noiseFloor -98dBm
param *.rsu.nic.phy80211p.minPowerLevel -110dBm
param *.rsu.nic.phy80211p.analogueModels "xmldoc(\"config.xml\")"
param *.rsu.nic.phy80211p.decider "xmldoc(\"config.xml\")"
param *.rsu.nic.phy80211p.sensitivity -89dBm
param *.rsu.nic.mac1609_4.txPower 20mW
param *.rsu.mobility.x 1420
param *.rsu.mobility.y 1250
param *.rsu.mobility.z 1.895
param *.node[*].appl.debug false
param *.node[*].appl.headerLength "88 bit"
param *.node[*].appl.dataLengthBits "512 bit"
param *.node[*].appl.sendBeacons true
param *.node[*].appl.dataOnSch true
param *.node[*].appl.sendData true
param *.node[*].appl.beaconInterval 1s
param *.node[*].appl.beaconPriority 3
param *.node[*].appl.dataPriority 2
param *.node[*].appl.maxOffset 0.005s
param *.node.appl.dataOnSch false
param *.rsu.appl.dataOnSch false
param *.node[*].veinsmobilityType.debug false
param *.node[*].veinsmobility.x 0
param *.node[*].veinsmobility.y 0
param *.node[*].veinsmobility.z 1.895

vector 0 FloodingNetwork.node[0].veinsmobility posx ETV
vector 1 FloodingNetwork.node[0].veinsmobility posy ETV
vector 2 FloodingNetwork.node[1].veinsmobility posx ETV
vector 3 FloodingNetwork.node[1].veinsmobility posy ETV
vector 4 FloodingNetwork.node[2].veinsmobility posx ETV
vector 5 FloodingNetwork.node[2].veinsmobility posy ETV
vector 6 FloodingNetwork.node[3].veinsmobility posx ETV
vector 7 FloodingNetwork.node[3].veinsmobility posy ETV
vector 8 FloodingNetwork.node[4].veinsmobility posx ETV
vector 9 FloodingNetwork.node[4].veinsmobility posy ETV
vector 10 FloodingNetwork.node[5].veinsmobility posx ETV
vector 11 FloodingNetwork.node[5].veinsmobility posy ETV
vector 12 FloodingNetwork.node[6].veinsmobility posx ETV
vector 13 FloodingNetwork.node[6].veinsmobility posy ETV
vector 14 FloodingNetwork.node[7].veinsmobility posx ETV
vector 15 FloodingNetwork.node[7].veinsmobility posy ETV
vector 16 FloodingNetwork.node[8].veinsmobility posx ETV
vector 17 FloodingNetwork.node[8].veinsmobility posy ETV
vector 18 FloodingNetwork.node[9].veinsmobility posx ETV
vector 19 FloodingNetwork.node[9].veinsmobility posy ETV
vector 20 FloodingNetwork.node[10].veinsmobility posx ETV
vector 21 FloodingNetwork.node[10].veinsmobility posy ETV
vector 22 FloodingNetwork.node[11].veinsmobility posx ETV
vector 23 FloodingNetwork.node[11].veinsmobility posy ETV
vector 24 FloodingNetwork.node[12].veinsmobility posx ETV
vector 25 FloodingNetwork.node[12].veinsmobility posy ETV
vector 26 FloodingNetwork.node[13].veinsmobility posx ETV
vector 27 FloodingNetwork.node[13].veinsmobility posy ETV
vector 28 FloodingNetwork.node[14].veinsmobility posx ETV
vector 29 FloodingNetwork.node[14].veinsmobility posy ETV
vector 30 FloodingNetwork.node[15].veinsmobility posx ETV
vector 31 FloodingNetwork.node[15].veinsmobility posy ETV
vector 32 FloodingNetwork.node[16].veinsmobility posx ETV
vector 33 FloodingNetwork.node[16].veinsmobility posy ETV
vector 34 FloodingNetwork.node[17].veinsmobility posx ETV
vector 35 FloodingNetwork.node[17].veinsmobility posy ETV
vector 36 FloodingNetwork.node[18].veinsmobility posx ETV
vector 37 FloodingNetwork.node[18].veinsmobility posy ETV
vector 38 FloodingNetwork.node[19].veinsmobility posx ETV
vector 39 FloodingNetwork.node[19].veinsmobility posy ETV
vector 40 FloodingNetwork.node[20].veinsmobility posx ETV
vector 41 FloodingNetwork.node[20].veinsmobility posy ETV
vector 42 FloodingNetwork.node[21].veinsmobility posx ETV
vector 43 FloodingNetwork.node[21].veinsmobility posy ETV
vector 44 FloodingNetwork.node[22].veinsmobility posx ETV
vector 45 FloodingNetwork.node[22].veinsmobility posy ETV
vector 46 FloodingNetwork.node[23].veinsmobility posx ETV
vector 47 FloodingNetwork.node[23].veinsmobility posy ETV
vector 48 FloodingNetwork.node[24].veinsmobility posx ETV
vector 49 FloodingNetwork.node[24].veinsmobility posy ETV
vector 50 FloodingNetwork.node[25].veinsmobility posx ETV
vector 51 FloodingNetwork.node[25].veinsmobility posy ETV
vector 52 FloodingNetwork.node[26].veinsmobility posx ETV
vector 53 FloodingNetwork.node[26].veinsmobility posy ETV
vector 54 FloodingNetwork.node[27].veinsmobility posx ETV
vector 55 FloodingNetwork.node[27].veinsmobility posy ETV
vector 56 FloodingNetwork.node[28].veinsmobility posx ETV
vector 57 FloodingNetwork.node[28].veinsmobility posy ETV
vector 58 FloodingNetwork.node[29].veinsmobility posx ETV
vector 59 FloodingNetwork.node[29].veinsmobility posy ETV
vector 60 FloodingNetwork.node[30].veinsmobility posx ETV
vector 61 FloodingNetwork.node[30].veinsmobility posy ETV
vector 62 FloodingNetwork.node[31].veinsmobility posx ETV
vector 63 FloodingNetwork.node[31].veinsmobility posy ETV
vector 64 FloodingNetwork.node[32].veinsmobility posx ETV
vector 65 FloodingNetwork.node[32].veinsmobility posy ETV
vector 66 FloodingNetwork.node[33].veinsmobility posx ETV
vector 67 FloodingNetwork.node[33].veinsmobility posy ETV
vector 68 FloodingNetwork.node[34].veinsmobility posx ETV
vector 69 FloodingNetwork.node[34].veinsmobility posy ETV
vector 70 FloodingNetwork.node[35].veinsmobility posx ETV
vector 71 FloodingNetwork.node[35].veinsmobility posy ETV
vector 72 FloodingNetwork.node[36].veinsmobility posx ETV
vector 73 FloodingNetwork.node[36].veinsmobility posy ETV
vector 74 FloodingNetwork.node[37].veinsmobility posx ETV
vector 75 FloodingNetwork.node[37].veinsmobility posy ETV
vector 76 FloodingNetwork.node[38].veinsmobility posx ETV
vector 77 FloodingNetwork.node[38].veinsmobility posy ETV
vector 78 FloodingNetwork.node[39].veinsmobility posx ETV
vector 79 FloodingNetwork.node[39].veinsmobility posy ETV
vector 80 FloodingNetwork.node[40].veinsmobility posx ETV
vector 81 FloodingNetwork.node[40].veinsmobility posy ETV
vector 82 FloodingNetwork.node[41].veinsmobility posx ETV
vector 83 FloodingNetwork.node[41].veinsmobility posy ETV
vector 84 FloodingNetwork.node[42].veinsmobility posx ETV
vector 85 FloodingNetwork.node[42].veinsmobility posy ETV
vector 86 FloodingNetwork.node[43].veinsmobility posx ETV
vector 87 FloodingNetwork.node[43].veinsmobility posy ETV
vector 88 FloodingNetwork.node[44].veinsmobility posx ETV
vector 89 FloodingNetwork.node[44].veinsmobility posy ETV
vector 90 FloodingNetwork.node[45].veinsmobility posx ETV
vector 91 FloodingNetwork.node[45].veinsmobility posy ETV
vector 92 FloodingNetwork.node[46].veinsmobility posx ETV
vector 93 FloodingNetwork.node[46].veinsmobility posy ETV
vector 94 FloodingNetwork.node[47].veinsmobility posx ETV
vector 95 FloodingNetwork.node[47].veinsmobility posy ETV
vector 96 FloodingNetwork.node[48].veinsmobility posx ETV
vector 97 FloodingNetwork.node[48].veinsmobility posy ETV
vector 98 FloodingNetwork.node[49].veinsmobility posx ETV
vector 99 FloodingNetwork.node[49].veinsmobility posy ETV
vector 100 FloodingNetwork.node[50].veinsmobility posx ETV
vector 101 FloodingNetwork.node[50].veinsmobility posy ETV
vector 102 FloodingNetwork.node[51].veinsmobility posx ETV
vector 103 FloodingNetwork.node[51].veinsmobility posy ETV
vector 104 FloodingNetwork.node[52].veinsmobility posx ETV
vector 105 FloodingNetwork.node[52].veinsmobility posy ETV
vector 106 FloodingNetwork.node[53].veinsmobility posx ETV
vector 107 FloodingNetwork.node[53].veinsmobility posy ETV
vector 108 FloodingNetwork.node[54].veinsmobility posx ETV
vector 109 FloodingNetwork.node[54].veinsmobility posy ETV
vector 110 FloodingNetwork.node[55].veinsmobility posx ETV
vector 111 FloodingNetwork.node[55].veinsmobility posy ETV
vector 112 FloodingNetwork.node[56].veinsmobility posx ETV
vector 113 FloodingNetwork.node[56].veinsmobility posy ETV
vector 114 FloodingNetwork.node[57].veinsmobility posx ETV
vector 115 FloodingNetwork.node[57].veinsmobility posy ETV
vector 116 FloodingNetwork.node[58].veinsmobility posx ETV
vector 117 FloodingNetwork.node[58].veinsmobility posy ETV
vector 118 FloodingNetwork.node[59].veinsmobility posx ETV
vector 119 FloodingNetwork.node[59].veinsmobility posy ETV
vector 120 FloodingNetwork.node[60].veinsmobility posx ETV
vector 121 FloodingNetwork.node[60].veinsmobility posy ETV
vector 122 FloodingNetwork.node[61].veinsmobility posx ETV
vector 123 FloodingNetwork.node[61].veinsmobility posy ETV
vector 124 FloodingNetwork.node[62].veinsmobility posx ETV
vector 125 FloodingNetwork.node[62].veinsmobility posy ETV
vector 126 FloodingNetwork.node[63].veinsmobility posx ETV
vector 127 FloodingNetwork.node[63].veinsmobility posy ETV
vector 128 FloodingNetwork.node[64].veinsmobility posx ETV
vector 129 FloodingNetwork.node[64].veinsmobility posy ETV
vector 130 FloodingNetwork.node[65].veinsmobility posx ETV
vector 131 FloodingNetwork.node[65].veinsmobility posy ETV
vector 132 FloodingNetwork.node[66].veinsmobility posx ETV
vector 133 FloodingNetwork.node[66].veinsmobility posy ETV
vector 134 FloodingNetwork.node[67].veinsmobility posx ETV
vector 135 FloodingNetwork.node[67].veinsmobility posy ETV
vector 136 FloodingNetwork.node[68].veinsmobility posx ETV
vector 137 FloodingNetwork.node[68].veinsmobility posy ETV
vector 138 FloodingNetwork.node[69].veinsmobility posx ETV
vector 139 FloodingNetwork.node[69].veinsmobility posy ETV
vector 140 FloodingNetwork.node[70].veinsmobility posx ETV
vector 141 FloodingNetwork.node[70].veinsmobility posy ETV
vector 142 FloodingNetwork.node[71].veinsmobility posx ETV
vector 143 FloodingNetwork.node[71].veinsmobility posy ETV
vector 144 FloodingNetwork.node[72].veinsmobility posx ETV
vector 145 FloodingNetwork.node[72].veinsmobility posy ETV
vector 146 FloodingNetwork.node[73].veinsmobility posx ETV
vector 147 FloodingNetwork.node[73].veinsmobility posy ETV
vector 148 FloodingNetwork.node[74].veinsmobility posx ETV
vector 149 FloodingNetwork.node[74].veinsmobility posy ETV
vector 150 FloodingNetwork.node[75].veinsmobility posx ETV
vector 151 FloodingNetwork.node[75].veinsmobility posy ETV
vector 152 FloodingNetwork.node[76].veinsmobility posx ETV
vector 153 FloodingNetwork.node[76].veinsmobility posy ETV
vector 154 FloodingNetwork.node[77].veinsmobility posx ETV
vector 155 FloodingNetwork.node[77].veinsmobility posy ETV
vector 156 FloodingNetwork.node[78].veinsmobility posx ETV
vector 157 FloodingNetwork.node[78].veinsmobility posy ETV
vector 158 FloodingNetwork.node[79].veinsmobility posx ETV
vector 159 FloodingNetwork.node[79].veinsmobility posy ETV
vector 160 FloodingNetwork.node[80].veinsmobility posx ETV
vector 161 FloodingNetwork.node[80].veinsmobility posy ETV
vector 162 FloodingNetwork.node[81].veinsmobility posx ETV
vector 163 FloodingNetwork.node[81].veinsmobility posy ETV
vector 164 FloodingNetwork.node[82].veinsmobility posx ETV
vector 165 FloodingNetwork.node[82].veinsmobility posy ETV
vector 166 FloodingNetwork.node[83].veinsmobility posx ETV
vector 167 FloodingNetwork.node[83].veinsmobility posy ETV
vector 168 FloodingNetwork.node[84].veinsmobility posx ETV
vector 169 FloodingNetwork.node[84].veinsmobility posy ETV
vector 170 FloodingNetwork.node[85].veinsmobility posx ETV
vector 171 FloodingNetwork.node[85].veinsmobility posy ETV
vector 172 FloodingNetwork.node[86].veinsmobility posx ETV
vector 173 FloodingNetwork.node[86].veinsmobility posy ETV
vector 174 FloodingNetwork.node[87].veinsmobility posx ETV
vector 175 FloodingNetwork.node[87].veinsmobility posy ETV
vector 176 FloodingNetwork.node[88].veinsmobility posx ETV
vector 177 FloodingNetwork.node[88].veinsmobility posy ETV
vector 178 FloodingNetwork.node[89].veinsmobility posx ETV
vector 179 FloodingNetwork.node[89].veinsmobility posy ETV
vector 180 FloodingNetwork.node[90].veinsmobility posx ETV
vector 181 FloodingNetwork.node[90].veinsmobility posy ETV
vector 182 FloodingNetwork.node[91].veinsmobility posx ETV
vector 183 FloodingNetwork.node[91].veinsmobility posy ETV
vector 184 FloodingNetwork.node[92].veinsmobility posx ETV
vector 185 FloodingNetwork.node[92].veinsmobility posy ETV
vector 186 FloodingNetwork.node[93].veinsmobility posx ETV
vector 187 FloodingNetwork.node[93].veinsmobility posy ETV
vector 188 FloodingNetwork.node[94].veinsmobility posx ETV
vector 189 FloodingNetwork.node[94].veinsmobility posy ETV
vector 190 FloodingNetwork.node[95].veinsmobility posx ETV
vector 191 FloodingNetwork.node[95].veinsmobility posy ETV
vector 192 FloodingNetwork.node[96].veinsmobility posx ETV
vector 193 FloodingNetwork.node[96].veinsmobility posy ETV
vector 194 FloodingNetwork.node[97].veinsmobility posx ETV
vector 195 FloodingNetwork.node[97].veinsmobility posy ETV
vector 196 FloodingNetwork.node[98].veinsmobility posx ETV
vector 197 FloodingNetwork.node[98].veinsmobility posy ETV
vector 198 FloodingNetwork.node[99].veinsmobility posx ETV
vector 199 FloodingNetwork.node[99].veinsmobility posy ETV
vector 200 FloodingNetwork.node[100].veinsmobility posx ETV
vector 201 FloodingNetwork.node[100].veinsmobility posy ETV
vector 202 FloodingNetwork.node[101].veinsmobility posx ETV
vector 203 FloodingNetwork.node[101].veinsmobility posy ETV
vector 204 FloodingNetwork.node[102].veinsmobility posx ETV
vector 205 FloodingNetwork.node[102].veinsmobility posy ETV
vector 206 FloodingNetwork.node[103].veinsmobility posx ETV
vector 207 FloodingNetwork.node[103].veinsmobility posy ETV
vector 208 FloodingNetwork.node[104].veinsmobility posx ETV
vector 209 FloodingNetwork.node[104].veinsmobility posy ETV
vector 210 FloodingNetwork.node[105].veinsmobility posx ETV
vector 211 FloodingNetwork.node[105].veinsmobility posy ETV
vector 212 FloodingNetwork.node[106].veinsmobility posx ETV
vector 213 FloodingNetwork.node[106].veinsmobility posy ETV
vector 214 FloodingNetwork.node[107].veinsmobility posx ETV
vector 215 FloodingNetwork.node[107].veinsmobility posy ETV
vector 216 FloodingNetwork.node[108].veinsmobility posx ETV
vector 217 FloodingNetwork.node[108].veinsmobility posy ETV
vector 218 FloodingNetwork.node[109].veinsmobility posx ETV
vector 219 FloodingNetwork.node[109].veinsmobility posy ETV
vector 220 FloodingNetwork.node[110].veinsmobility posx ETV
vector 221 FloodingNetwork.node[110].veinsmobility posy ETV
vector 222 FloodingNetwork.node[111].veinsmobility posx ETV
vector 223 FloodingNetwork.node[111].veinsmobility posy ETV
vector 224 FloodingNetwork.node[112].veinsmobility posx ETV
vector 225 FloodingNetwork.node[112].veinsmobility posy ETV
vector 226 FloodingNetwork.node[113].veinsmobility posx ETV
vector 227 FloodingNetwork.node[113].veinsmobility posy ETV
vector 228 FloodingNetwork.node[114].veinsmobility posx ETV
vector 229 FloodingNetwork.node[114].veinsmobility posy ETV
vector 230 FloodingNetwork.node[115].veinsmobility posx ETV
vector 231 FloodingNetwork.node[115].veinsmobility posy ETV
vector 232 FloodingNetwork.node[116].veinsmobility posx ETV
vector 233 FloodingNetwork.node[116].veinsmobility posy ETV
vector 234 FloodingNetwork.node[117].veinsmobility posx ETV
vector 235 FloodingNetwork.node[117].veinsmobility posy ETV
vector 236 FloodingNetwork.node[118].veinsmobility posx ETV
vector 237 FloodingNetwork.node[118].veinsmobility posy ETV
vector 238 FloodingNetwork.node[119].veinsmobility posx ETV
vector 239 FloodingNetwork.node[119].veinsmobility posy ETV
vector 240 FloodingNetwork.node[120].veinsmobility posx ETV
vector 241 FloodingNetwork.node[120].veinsmobility posy ETV
vector 242 FloodingNetwork.node[121].veinsmobility posx ETV
vector 243 FloodingNetwork.node[121].veinsmobility posy ETV
vector 244 FloodingNetwork.node[122].veinsmobility posx ETV
vector 245 FloodingNetwork.node[122].veinsmobility posy ETV
vector 246 FloodingNetwork.node[123].veinsmobility posx ETV
vector 247 FloodingNetwork.node[123].veinsmobility posy ETV
vector 248 FloodingNetwork.node[124].veinsmobility posx ETV
vector 249 FloodingNetwork.node[124].veinsmobility posy ETV
vector 250 FloodingNetwork.node[125].veinsmobility posx ETV
vector 251 FloodingNetwork.node[125].veinsmobility posy ETV
vector 252 FloodingNetwork.node[126].veinsmobility posx ETV
vector 253 FloodingNetwork.node[126].veinsmobility posy ETV
vector 254 FloodingNetwork.node[127].veinsmobility posx ETV
vector 255 FloodingNetwork.node[127].veinsmobility posy ETV
vector 256 FloodingNetwork.node[128].veinsmobility posx ETV
vector 257 FloodingNetwork.node[128].veinsmobility posy ETV
vector 258 FloodingNetwork.node[129].veinsmobility posx ETV
vector 259 FloodingNetwork.node[129].veinsmobility posy ETV
vector 260 FloodingNetwork.node[130].veinsmobility posx ETV
vector 261 FloodingNetwork.node[130].veinsmobility posy ETV
vector 262 FloodingNetwork.node[0].veinsmobility speed ETV
vector 263 FloodingNetwork.node[1].veinsmobility speed ETV
vector 264 FloodingNetwork.node[2].veinsmobility speed ETV
vector 265 FloodingNetwork.node[3].veinsmobility speed ETV
vector 266 FloodingNetwork.node[4].veinsmobility speed ETV
vector 267 FloodingNetwork.node[5].veinsmobility speed ETV
vector 268 FloodingNetwork.node[6].veinsmobility speed ETV
vector 269 FloodingNetwork.node[7].veinsmobility speed ETV
vector 270 FloodingNetwork.node[8].veinsmobility speed ETV
vector 271 FloodingNetwork.node[9].veinsmobility speed ETV
vector 272 FloodingNetwork.node[10].veinsmobility speed ETV
vector 273 FloodingNetwork.node[11].veinsmobility speed ETV
vector 274 FloodingNetwork.node[12].veinsmobility speed ETV
vector 275 FloodingNetwork.node[13].veinsmobility speed ETV
vector 276 FloodingNetwork.node[14].veinsmobility speed ETV
vector 277 FloodingNetwork.node[15].veinsmobility speed ETV
vector 278 FloodingNetwork.node[16].veinsmobility speed ETV
vector 279 FloodingNetwork.node[17].veinsmobility speed ETV
vector 280 FloodingNetwork.node[18].veinsmobility speed ETV
vector 281 FloodingNetwork.node[19].veinsmobility speed ETV
vector 282 FloodingNetwork.node[20].veinsmobility speed ETV
vector 283 FloodingNetwork.node[21].veinsmobility speed ETV
vector 284 FloodingNetwork.node[22].veinsmobility speed ETV
vector 285 FloodingNetwork.node[23].veinsmobility speed ETV
vector 286 FloodingNetwork.node[24].veinsmobility speed ETV
vector 287 FloodingNetwork.node[25].veinsmobility speed ETV
vector 288 FloodingNetwork.node[26].veinsmobility speed ETV
vector 289 FloodingNetwork.node[27].veinsmobility speed ETV
vector 290 FloodingNetwork.node[28].veinsmobility speed ETV
vector 291 FloodingNetwork.node[29].veinsmobility speed ETV
vector 292 FloodingNetwork.node[30].veinsmobility speed ETV
vector 293 FloodingNetwork.node[31].veinsmobility speed ETV
vector 294 FloodingNetwork.node[32].veinsmobility speed ETV
vector 295 FloodingNetwork.node[33].veinsmobility speed ETV
vector 296 FloodingNetwork.node[34].veinsmobility speed ETV
vector 297 FloodingNetwork.node[35].veinsmobility speed ETV
vector 298 FloodingNetwork.node[36].veinsmobility speed ETV
vector 299 FloodingNetwork.node[37].veinsmobility speed ETV
vector 300 FloodingNetwork.node[38].veinsmobility speed ETV
vector 301 FloodingNetwork.node[39].veinsmobility speed ETV
vector 302 FloodingNetwork.node[40].veinsmobility speed ETV
vector 303 FloodingNetwork.node[41].veinsmobility speed ETV
vector 304 FloodingNetwork.node[42].veinsmobility speed ETV
vector 305 FloodingNetwork.node[43].veinsmobility speed ETV
vector 306 FloodingNetwork.node[44].veinsmobility speed ETV
vector 307 FloodingNetwork.node[45].veinsmobility speed ETV
vector 308 FloodingNetwork.node[46].veinsmobility speed ETV
vector 309 FloodingNetwork.node[47].veinsmobility speed ETV
vector 310 FloodingNetwork.node[48].veinsmobility speed ETV
vector 311 FloodingNetwork.node[49].veinsmobility speed ETV
vector 312 FloodingNetwork.node[50].veinsmobility speed ETV
vector 313 FloodingNetwork.node[51].veinsmobility speed ETV
vector 314 FloodingNetwork.node[52].veinsmobility speed ETV
vector 315 FloodingNetwork.node[53].veinsmobility speed ETV
vector 316 FloodingNetwork.node[54].veinsmobility speed ETV
vector 317 FloodingNetwork.node[55].veinsmobility speed ETV
vector 318 FloodingNetwork.node[56].veinsmobility speed ETV
vector 319 FloodingNetwork.node[57].veinsmobility speed ETV
vector 320 FloodingNetwork.node[58].veinsmobility speed ETV
vector 321 FloodingNetwork.node[59].veinsmobility speed ETV
vector 322 FloodingNetwork.node[60].veinsmobility speed ETV
vector 323 FloodingNetwork.node[61].veinsmobility speed ETV
vector 324 FloodingNetwork.node[62].veinsmobility speed ETV
vector 325 FloodingNetwork.node[63].veinsmobility speed ETV
vector 326 FloodingNetwork.node[64].veinsmobility speed ETV
vector 327 FloodingNetwork.node[65].veinsmobility speed ETV
vector 328 FloodingNetwork.node[66].veinsmobility speed ETV
vector 329 FloodingNetwork.node[67].veinsmobility speed ETV
vector 330 FloodingNetwork.node[68].veinsmobility speed ETV
vector 331 FloodingNetwork.node[69].veinsmobility speed ETV
vector 332 FloodingNetwork.node[70].veinsmobility speed ETV
vector 333 FloodingNetwork.node[71].veinsmobility speed ETV
vector 334 FloodingNetwork.node[72].veinsmobility speed ETV
vector 335 FloodingNetwork.node[73].veinsmobility speed ETV
vector 336 FloodingNetwork.node[74].veinsmobility speed ETV
vector 337 FloodingNetwork.node[75].veinsmobility speed ETV
vector 338 FloodingNetwork.node[76].veinsmobility speed ETV
vector 339 FloodingNetwork.node[77].veinsmobility speed ETV
vector 340 FloodingNetwork.node[78].veinsmobility speed ETV
vector 341 FloodingNetwork.node[79].veinsmobility speed ETV
vector 342 FloodingNetwork.node[80].veinsmobility speed ETV
vector 343 FloodingNetwork.node[81].veinsmobility speed ETV
vector 344 FloodingNetwork.node[82].veinsmobility speed ETV
vector 345 FloodingNetwork.node[83].veinsmobility speed ETV
vector 346 FloodingNetwork.node[84].veinsmobility speed ETV
vector 347 FloodingNetwork.node[85].veinsmobility speed ETV
vector 348 FloodingNetwork.node[86].veinsmobility speed ETV
vector 349 FloodingNetwork.node[87].veinsmobility speed ETV
vector 350 FloodingNetwork.node[88].veinsmobility speed ETV
vector 351 FloodingNetwork.node[89].veinsmobility speed ETV
vector 352 FloodingNetwork.node[90].veinsmobility speed ETV
vector 353 FloodingNetwork.node[91].veinsmobility speed ETV
vector 354 FloodingNetwork.node[92].veinsmobility speed ETV
vector 355 FloodingNetwork.node[93].veinsmobility speed ETV
vector 356 FloodingNetwork.node[94].veinsmobility speed ETV
vector 357 FloodingNetwork.node[95].veinsmobility speed ETV
vector 358 FloodingNetwork.node[96].veinsmobility speed ETV
vector 359 FloodingNetwork.node[97].veinsmobility speed ETV
vector 360 FloodingNetwork.node[98].veinsmobility speed ETV
vector 361 FloodingNetwork.node[99].veinsmobility speed ETV
vector 362 FloodingNetwork.node[100].veinsmobility speed ETV
vector 363 FloodingNetwork.node[101].veinsmobility speed ETV
vector 364 FloodingNetwork.node[102].veinsmobility speed ETV
vector 365 FloodingNetwork.node[103].veinsmobility speed ETV
vector 366 FloodingNetwork.node[104].veinsmobility speed ETV
vector 367 FloodingNetwork.node[105].veinsmobility speed ETV
vector 368 FloodingNetwork.node[106].veinsmobility speed ETV
vector 369 FloodingNetwork.node[107].veinsmobility speed ETV
vector 370 FloodingNetwork.node[108].veinsmobility speed ETV
vector 371 FloodingNetwork.node[109].veinsmobility speed ETV
vector 372 FloodingNetwork.node[110].veinsmobility speed ETV
vector 373 FloodingNetwork.node[111].veinsmobility speed ETV
vector 374 FloodingNetwork.node[112].veinsmobility speed ETV
vector 375 FloodingNetwork.node[113].veinsmobility speed ETV
vector 376 FloodingNetwork.node[114].veinsmobility speed ETV
vector 377 FloodingNetwork.node[115].veinsmobility speed ETV
vector 378 FloodingNetwork.node[116].veinsmobility speed ETV
vector 379 FloodingNetwork.node[117].veinsmobility speed ETV
vector 380 FloodingNetwork.node[118].veinsmobility speed ETV
vector 381 FloodingNetwork.node[119].veinsmobility speed ETV
vector 382 FloodingNetwork.node[120].veinsmobility speed ETV
vector 383 FloodingNetwork.node[121].veinsmobility speed ETV
vector 384 FloodingNetwork.node[122].veinsmobility speed ETV
vector 385 FloodingNetwork.node[123].veinsmobility speed ETV
vector 386 FloodingNetwork.node[124].veinsmobility speed ETV
vector 387 FloodingNetwork.node[125].veinsmobility speed ETV
vector 388 FloodingNetwork.node[126].veinsmobility speed ETV
vector 389 FloodingNetwork.node[127].veinsmobility speed ETV
vector 390 FloodingNetwork.node[128].veinsmobility speed ETV
vector 391 FloodingNetwork.node[129].veinsmobility speed ETV
vector 392 FloodingNetwork.node[130].veinsmobility speed ETV
vector 393 FloodingNetwork.node[0].veinsmobility acceleration ETV
vector 394 FloodingNetwork.node[0].veinsmobility co2emission ETV
vector 395 FloodingNetwork.node[1].veinsmobility acceleration ETV
vector 396 FloodingNetwork.node[1].veinsmobility co2emission ETV
vector 397 FloodingNetwork.node[2].veinsmobility acceleration ETV
vector 398 FloodingNetwork.node[2].veinsmobility co2emission ETV
vector 399 FloodingNetwork.node[3].veinsmobility acceleration ETV
vector 400 FloodingNetwork.node[3].veinsmobility co2emission ETV
vector 401 FloodingNetwork.node[4].veinsmobility acceleration ETV
vector 402 FloodingNetwork.node[4].veinsmobility co2emission ETV
vector 403 FloodingNetwork.node[5].veinsmobility acceleration ETV
vector 404 FloodingNetwork.node[5].veinsmobility co2emission ETV
vector 405 FloodingNetwork.node[6].veinsmobility acceleration ETV
vector 406 FloodingNetwork.node[6].veinsmobility co2emission ETV
vector 407 FloodingNetwork.node[7].veinsmobility acceleration ETV
vector 408 FloodingNetwork.node[7].veinsmobility co2emission ETV
vector 409 FloodingNetwork.node[8].veinsmobility acceleration ETV
vector 410 FloodingNetwork.node[8].veinsmobility co2emission ETV
vector 411 FloodingNetwork.node[9].veinsmobility acceleration ETV
vector 412 FloodingNetwork.node[9].veinsmobility co2emission ETV
vector 413 FloodingNetwork.node[10].veinsmobility acceleration ETV
vector 414 FloodingNetwork.node[10].veinsmobility co2emission ETV
vector 415 FloodingNetwork.node[11].veinsmobility acceleration ETV
vector 416 FloodingNetwork.node[11].veinsmobility co2emission ETV
vector 417 FloodingNetwork.node[12].veinsmobility acceleration ETV
vector 418 FloodingNetwork.node[12].veinsmobility co2emission ETV
vector 419 FloodingNetwork.node[13].veinsmobility acceleration ETV
vector 420 FloodingNetwork.node[13].veinsmobility co2emission ETV
vector 421 FloodingNetwork.node[14].veinsmobility acceleration ETV
vector 422 FloodingNetwork.node[14].veinsmobility co2emission ETV
vector 423 FloodingNetwork.node[15].veinsmobility acceleration ETV
vector 424 FloodingNetwork.node[15].veinsmobility co2emission ETV
vector 425 FloodingNetwork.node[16].veinsmobility acceleration ETV
vector 426 FloodingNetwork.node[16].veinsmobility co2emission ETV
vector 427 FloodingNetwork.node[17].veinsmobility acceleration ETV
vector 428 FloodingNetwork.node[17].veinsmobility co2emission ETV
vector 429 FloodingNetwork.node[18].veinsmobility acceleration ETV
vector 430 FloodingNetwork.node[18].veinsmobility co2emission ETV
vector 431 FloodingNetwork.node[19].veinsmobility acceleration ETV
vector 432 FloodingNetwork.node[19].veinsmobility co2emission ETV
vector 433 FloodingNetwork.node[20].veinsmobility acceleration ETV
vector 434 FloodingNetwork.node[20].veinsmobility co2emission ETV
vector 435 FloodingNetwork.node[21].veinsmobility acceleration ETV
vector 436 FloodingNetwork.node[21].veinsmobility co2emission ETV
vector 437 FloodingNetwork.node[22].veinsmobility acceleration ETV
vector 438 FloodingNetwork.node[22].veinsmobility co2emission ETV
vector 439 FloodingNetwork.node[23].veinsmobility acceleration ETV
vector 440 FloodingNetwork.node[23].veinsmobility co2emission ETV
vector 441 FloodingNetwork.node[24].veinsmobility acceleration ETV
vector 442 FloodingNetwork.node[24].veinsmobility co2emission ETV
vector 443 FloodingNetwork.node[25].veinsmobility acceleration ETV
vector 444 FloodingNetwork.node[25].veinsmobility co2emission ETV
vector 445 FloodingNetwork.node[26].veinsmobility acceleration ETV
vector 446 FloodingNetwork.node[26].veinsmobility co2emission ETV
vector 447 FloodingNetwork.node[27].veinsmobility acceleration ETV
vector 448 FloodingNetwork.node[27].veinsmobility co2emission ETV
vector 449 FloodingNetwork.node[28].veinsmobility acceleration ETV
vector 450 FloodingNetwork.node[28].veinsmobility co2emission ETV
vector 451 FloodingNetwork.node[29].veinsmobility acceleration ETV
vector 452 FloodingNetwork.node[29].veinsmobility co2emission ETV
vector 453 FloodingNetwork.node[30].veinsmobility acceleration ETV
vector 454 FloodingNetwork.node[30].veinsmobility co2emission ETV
vector 455 FloodingNetwork.node[31].veinsmobility acceleration ETV
vector 456 FloodingNetwork.node[31].veinsmobility co2emission ETV
vector 457 FloodingNetwork.node[32].veinsmobility acceleration ETV
vector 458 FloodingNetwork.node[32].veinsmobility co2emission ETV
vector 459 FloodingNetwork.node[33].veinsmobility acceleration ETV
vector 460 FloodingNetwork.node[33].veinsmobility co2emission ETV
vector 461 FloodingNetwork.node[34].veinsmobility acceleration ETV
vector 462 FloodingNetwork.node[34].veinsmobility co2emission ETV
vector 463 FloodingNetwork.node[35].veinsmobility acceleration ETV
vector 464 FloodingNetwork.node[35].veinsmobility co2emission ETV
vector 465 FloodingNetwork.node[36].veinsmobility acceleration ETV
vector 466 FloodingNetwork.node[36].veinsmobility co2emission ETV
vector 467 FloodingNetwork.node[37].veinsmobility acceleration ETV
vector 468 FloodingNetwork.node[37].veinsmobility co2emission ETV
vector 469 FloodingNetwork.node[38].veinsmobility acceleration ETV
vector 470 FloodingNetwork.node[38].veinsmobility co2emission ETV
vector 471 FloodingNetwork.node[39].veinsmobility acceleration ETV
vector 472 FloodingNetwork.node[39].veinsmobility co2emission ETV
vector 473 FloodingNetwork.node[40].veinsmobility acceleration ETV
vector 474 FloodingNetwork.node[40].veinsmobility co2emission ETV
vector 475 FloodingNetwork.node[41].veinsmobility acceleration ETV
vector 476 FloodingNetwork.node[41].veinsmobility co2emission ETV
vector 477 FloodingNetwork.node[42].veinsmobility acceleration ETV
vector 478 FloodingNetwork.node[42].veinsmobility co2emission ETV
vector 479 FloodingNetwork.node[43].veinsmobility acceleration ETV
vector 480 FloodingNetwork.node[43].veinsmobility co2emission ETV
vector 481 FloodingNetwork.node[44].veinsmobility acceleration ETV
vector 482 FloodingNetwork.node[44].veinsmobility co2emission ETV
vector 483 FloodingNetwork.node[45].veinsmobility acceleration ETV
vector 484 FloodingNetwork.node[45].veinsmobility co2emission ETV
vector 485 FloodingNetwork.node[46].veinsmobility acceleration ETV
vector 486 FloodingNetwork.node[46].veinsmobility co2emission ETV
vector 487 FloodingNetwork.node[47].veinsmobility acceleration ETV
vector 488 FloodingNetwork.node[47].veinsmobility co2emission ETV
vector 489 FloodingNetwork.node[48].veinsmobility acceleration ETV
vector 490 FloodingNetwork.node[48].veinsmobility co2emission ETV
vector 491 FloodingNetwork.node[49].veinsmobility acceleration ETV
vector 492 FloodingNetwork.node[49].veinsmobility co2emission ETV
vector 493 FloodingNetwork.node[50].veinsmobility acceleration ETV
vector 494 FloodingNetwork.node[50].veinsmobility co2emission ETV
vector 495 FloodingNetwork.node[51].veinsmobility acceleration ETV
vector 496 FloodingNetwork.node[51].veinsmobility co2emission ETV
vector 497 FloodingNetwork.node[52].veinsmobility acceleration ETV
vector 498 FloodingNetwork.node[52].veinsmobility co2emission ETV
vector 499 FloodingNetwork.node[53].veinsmobility acceleration ETV
vector 500 FloodingNetwork.node[53].veinsmobility co2emission ETV
vector 501 FloodingNetwork.node[54].veinsmobility acceleration ETV
vector 502 FloodingNetwork.node[54].veinsmobility co2emission ETV
vector 503 FloodingNetwork.node[55].veinsmobility acceleration ETV
vector 504 FloodingNetwork.node[55].veinsmobility co2emission ETV
vector 505 FloodingNetwork.node[56].veinsmobility acceleration ETV
vector 506 FloodingNetwork.node[56].veinsmobility co2emission ETV
vector 507 FloodingNetwork.node[57].veinsmobility acceleration ETV
vector 508 FloodingNetwork.node[57].veinsmobility co2emission ETV
vector 509 FloodingNetwork.node[58].veinsmobility acceleration ETV
vector 510 FloodingNetwork.node[58].veinsmobility co2emission ETV
vector 511 FloodingNetwork.node[59].veinsmobility acceleration ETV
vector 512 FloodingNetwork.node[59].veinsmobility co2emission ETV
vector 513 FloodingNetwork.node[60].veinsmobility acceleration ETV
vector 514 FloodingNetwork.node[60].veinsmobility co2emission ETV
vector 515 FloodingNetwork.node[61].veinsmobility acceleration ETV
vector 516 FloodingNetwork.node[61].veinsmobility co2emission ETV
vector 517 FloodingNetwork.node[62].veinsmobility acceleration ETV
vector 518 FloodingNetwork.node[62].veinsmobility co2emission ETV
vector 519 FloodingNetwork.node[63].veinsmobility acceleration ETV
vector 520 FloodingNetwork.node[63].veinsmobility co2emission ETV
vector 521 FloodingNetwork.node[64].veinsmobility acceleration ETV
vector 522 FloodingNetwork.node[64].veinsmobility co2emission ETV
vector 523 FloodingNetwork.node[65].veinsmobility acceleration ETV
vector 524 FloodingNetwork.node[65].veinsmobility co2emission ETV
vector 525 FloodingNetwork.node[66].veinsmobility acceleration ETV
vector 526 FloodingNetwork.node[66].veinsmobility co2emission ETV
vector 527 FloodingNetwork.node[67].veinsmobility acceleration ETV
vector 528 FloodingNetwork.node[67].veinsmobility co2emission ETV
vector 529 FloodingNetwork.node[68].veinsmobility acceleration ETV
vector 530 FloodingNetwork.node[68].veinsmobility co2emission ETV
vector 531 FloodingNetwork.node[69].veinsmobility acceleration ETV
vector 532 FloodingNetwork.node[69].veinsmobility co2emission ETV
vector 533 FloodingNetwork.node[70].veinsmobility acceleration ETV
vector 534 FloodingNetwork.node[70].veinsmobility co2emission ETV
vector 535 FloodingNetwork.node[71].veinsmobility acceleration ETV
vector 536 FloodingNetwork.node[71].veinsmobility co2emission ETV
vector 537 FloodingNetwork.node[72].veinsmobility acceleration ETV
vector 538 FloodingNetwork.node[72].veinsmobility co2emission ETV
vector 539 FloodingNetwork.node[73].veinsmobility acceleration ETV
vector 540 FloodingNetwork.node[73].veinsmobility co2emission ETV
vector 541 FloodingNetwork.node[74].veinsmobility acceleration ETV
vector 542 FloodingNetwork.node[74].veinsmobility co2emission ETV
vector 543 FloodingNetwork.node[75].veinsmobility acceleration ETV
vector 544 FloodingNetwork.node[75].veinsmobility co2emission ETV
vector 545 FloodingNetwork.node[76].veinsmobility acceleration ETV
vector 546 FloodingNetwork.node[76].veinsmobility co2emission ETV
vector 547 FloodingNetwork.node[77].veinsmobility acceleration ETV
vector 548 FloodingNetwork.node[77].veinsmobility co2emission ETV
vector 549 FloodingNetwork.node[78].veinsmobility acceleration ETV
vector 550 FloodingNetwork.node[78].veinsmobility co2emission ETV
vector 551 FloodingNetwork.node[79].veinsmobility acceleration ETV
vector 552 FloodingNetwork.node[79].veinsmobility co2emission ETV
vector 553 FloodingNetwork.node[80].veinsmobility acceleration ETV
vector 554 FloodingNetwork.node[80].veinsmobility co2emission ETV
vector 555 FloodingNetwork.node[81].veinsmobility acceleration ETV
vector 556 FloodingNetwork.node[81].veinsmobility co2emission ETV
vector 557 FloodingNetwork.node[82].veinsmobility acceleration ETV
vector 558 FloodingNetwork.node[82].veinsmobility co2emission ETV
vector 559 FloodingNetwork.node[83].veinsmobility acceleration ETV
vector 560 FloodingNetwork.node[83].veinsmobility co2emission ETV
vector 561 FloodingNetwork.node[84].veinsmobility acceleration ETV
vector 562 FloodingNetwork.node[84].veinsmobility co2emission ETV
vector 563 FloodingNetwork.node[85].veinsmobility acceleration ETV
vector 564 FloodingNetwork.node[85].veinsmobility co2emission ETV
vector 565 FloodingNetwork.node[86].veinsmobility acceleration ETV
vector 566 FloodingNetwork.node[86].veinsmobility co2emission ETV
vector 567 FloodingNetwork.node[87].veinsmobility acceleration ETV
vector 568 FloodingNetwork.node[87].veinsmobility co2emission ETV
vector 569 FloodingNetwork.node[88].veinsmobility acceleration ETV
vector 570 FloodingNetwork.node[88].veinsmobility co2emission ETV
vector 571 FloodingNetwork.node[89].veinsmobility acceleration ETV
vector 572 FloodingNetwork.node[89].veinsmobility co2emission ETV
vector 573 FloodingNetwork.node[90].veinsmobility acceleration ETV
vector 574 FloodingNetwork.node[90].veinsmobility co2emission ETV
vector 575 FloodingNetwork.node[91].veinsmobility acceleration ETV
vector 576 FloodingNetwork.node[91].veinsmobility co2emission ETV
vector 577 FloodingNetwork.node[92].veinsmobility acceleration ETV
vector 578 FloodingNetwork.node[92].veinsmobility co2emission ETV
vector 579 FloodingNetwork.node[93].veinsmobility acceleration ETV
vector 580 FloodingNetwork.node[93].veinsmobility co2emission ETV
vector 581 FloodingNetwork.node[94].veinsmobility acceleration ETV
vector 582 FloodingNetwork.node[94].veinsmobility co2emission ETV
vector 583 FloodingNetwork.node[95].veinsmobility acceleration ETV
vector 584 FloodingNetwork.node[95].veinsmobility co2emission ETV
vector 585 FloodingNetwork.node[96].veinsmobility acceleration ETV
vector 586 FloodingNetwork.node[96].veinsmobility co2emission ETV
vector 587 FloodingNetwork.node[97].veinsmobility acceleration ETV
vector 588 FloodingNetwork.node[97].veinsmobility co2emission ETV
vector 589 FloodingNetwork.node[98].veinsmobility acceleration ETV
vector 590 FloodingNetwork.node[98].veinsmobility co2emission ETV
vector 591 FloodingNetwork.node[99].veinsmobility acceleration ETV
vector 592 FloodingNetwork.node[99].veinsmobility co2emission ETV
vector 593 FloodingNetwork.node[100].veinsmobility acceleration ETV
vector 594 FloodingNetwork.node[100].veinsmobility co2emission ETV
vector 595 FloodingNetwork.node[101].veinsmobility acceleration ETV
vector 596 FloodingNetwork.node[101].veinsmobility co2emission ETV
vector 597 FloodingNetwork.node[102].veinsmobility acceleration ETV
vector 598 FloodingNetwork.node[102].veinsmobility co2emission ETV
vector 599 FloodingNetwork.node[103].veinsmobility acceleration ETV
vector 600 FloodingNetwork.node[103].veinsmobility co2emission ETV
vector 601 FloodingNetwork.node[104].veinsmobility acceleration ETV
vector 602 FloodingNetwork.node[104].veinsmobility co2emission ETV
vector 603 FloodingNetwork.node[105].veinsmobility acceleration ETV
vector 604 FloodingNetwork.node[105].veinsmobility co2emission ETV
vector 605 FloodingNetwork.node[106].veinsmobility acceleration ETV
vector 606 FloodingNetwork.node[106].veinsmobility co2emission ETV
vector 607 FloodingNetwork.node[107].veinsmobility acceleration ETV
vector 608 FloodingNetwork.node[107].veinsmobility co2emission ETV
vector 609 FloodingNetwork.node[108].veinsmobility acceleration ETV
vector 610 FloodingNetwork.node[108].veinsmobility co2emission ETV
vector 611 FloodingNetwork.node[109].veinsmobility acceleration ETV
vector 612 FloodingNetwork.node[109].veinsmobility co2emission ETV
vector 613 FloodingNetwork.node[110].veinsmobility acceleration ETV
vector 614 FloodingNetwork.node[110].veinsmobility co2emission ETV
vector 615 FloodingNetwork.node[111].veinsmobility acceleration ETV
vector 616 FloodingNetwork.node[111].veinsmobility co2emission ETV
vector 617 FloodingNetwork.node[112].veinsmobility acceleration ETV
vector 618 FloodingNetwork.node[112].veinsmobility co2emission ETV
vector 619 FloodingNetwork.node[113].veinsmobility acceleration ETV
vector 620 FloodingNetwork.node[113].veinsmobility co2emission ETV
vector 621 FloodingNetwork.node[114].veinsmobility acceleration ETV
vector 622 FloodingNetwork.node[114].veinsmobility co2emission ETV
vector 623 FloodingNetwork.node[115].veinsmobility acceleration ETV
vector 624 FloodingNetwork.node[115].veinsmobility co2emission ETV
vector 625 FloodingNetwork.node[116].veinsmobility acceleration ETV
vector 626 FloodingNetwork.node[116].veinsmobility co2emission ETV
vector 627 FloodingNetwork.node[117].veinsmobility acceleration ETV
vector 628 FloodingNetwork.node[117].veinsmobility co2emission ETV
vector 629 FloodingNetwork.node[118].veinsmobility acceleration ETV
vector 630 FloodingNetwork.node[118].veinsmobility co2emission ETV
vector 631 FloodingNetwork.node[119].veinsmobility acceleration ETV
vector 632 FloodingNetwork.node[119].veinsmobility co2emission ETV
vector 633 FloodingNetwork.node[120].veinsmobility acceleration ETV
vector 634 FloodingNetwork.node[120].veinsmobility co2emission ETV
vector 635 FloodingNetwork.node[121].veinsmobility acceleration ETV
vector 636 FloodingNetwork.node[121].veinsmobility co2emission ETV
vector 637 FloodingNetwork.node[122].veinsmobility acceleration ETV
vector 638 FloodingNetwork.node[122].veinsmobility co2emission ETV
vector 639 FloodingNetwork.node[123].veinsmobility acceleration ETV
vector 640 FloodingNetwork.node[123].veinsmobility co2emission ETV
vector 641 FloodingNetwork.node[124].veinsmobility acceleration ETV
vector 642 FloodingNetwork.node[124].veinsmobility co2emission ETV
vector 643 FloodingNetwork.node[125].veinsmobility acceleration ETV
vector 644 FloodingNetwork.node[125].veinsmobility co2emission ETV
vector 645 FloodingNetwork.node[126].veinsmobility acceleration ETV
vector 646 FloodingNetwork.node[126].veinsmobility co2emission ETV
vector 647 FloodingNetwork.node[127].veinsmobility acceleration ETV
vector 648 FloodingNetwork.node[127].veinsmobility co2emission ETV
vector 649 FloodingNetwork.node[128].veinsmobility acceleration ETV
vector 650 FloodingNetwork.node[128].veinsmobility co2emission ETV
vector 651 FloodingNetwork.node[129].veinsmobility acceleration ETV
vector 652 FloodingNetwork.node[129].veinsmobility co2emission ETV
vector 653 FloodingNetwork.node[130].veinsmobility acceleration ETV
vector 654 FloodingNetwork.node[130].veinsmobility co2emission ETV
vector 655 FloodingNetwork.node[131].veinsmobility posx ETV
vector 656 FloodingNetwork.node[131].veinsmobility posy ETV
vector 657 FloodingNetwork.node[132].veinsmobility posx ETV
vector 658 FloodingNetwork.node[132].veinsmobility posy ETV
vector 659 FloodingNetwork.node[133].veinsmobility posx ETV
vector 660 FloodingNetwork.node[133].veinsmobility posy ETV
vector 661 FloodingNetwork.node[134].veinsmobility posx ETV
vector 662 FloodingNetwork.node[134].veinsmobility posy ETV
vector 663 FloodingNetwork.node[135].veinsmobility posx ETV
vector 664 FloodingNetwork.node[135].veinsmobility posy ETV
vector 665 FloodingNetwork.node[136].veinsmobility posx ETV
vector 666 FloodingNetwork.node[136].veinsmobility posy ETV
vector 667 FloodingNetwork.node[137].veinsmobility posx ETV
vector 668 FloodingNetwork.node[137].veinsmobility posy ETV
vector 669 FloodingNetwork.node[138].veinsmobility posx ETV
vector 670 FloodingNetwork.node[138].veinsmobility posy ETV
vector 671 FloodingNetwork.node[139].veinsmobility posx ETV
vector 672 FloodingNetwork.node[139].veinsmobility posy ETV
vector 673 FloodingNetwork.node[140].veinsmobility posx ETV
vector 674 FloodingNetwork.node[140].veinsmobility posy ETV
vector 675 FloodingNetwork.node[141].veinsmobility posx ETV
vector 676 FloodingNetwork.node[141].veinsmobility posy ETV
vector 677 FloodingNetwork.node[142].veinsmobility posx ETV
vector 678 FloodingNetwork.node[142].veinsmobility posy ETV
vector 679 FloodingNetwork.node[131].veinsmobility speed ETV
vector 680 FloodingNetwork.node[132].veinsmobility speed ETV
vector 681 FloodingNetwork.node[133].veinsmobility speed ETV
vector 682 FloodingNetwork.node[134].veinsmobility speed ETV
vector 683 FloodingNetwork.node[135].veinsmobility speed ETV
vector 684 FloodingNetwork.node[136].veinsmobility speed ETV
vector 685 FloodingNetwork.node[137].veinsmobility speed ETV
vector 686 FloodingNetwork.node[143].veinsmobility posx ETV
vector 687 FloodingNetwork.node[143].veinsmobility posy ETV
vector 688 FloodingNetwork.node[131].veinsmobility acceleration ETV
vector 689 FloodingNetwork.node[131].veinsmobility co2emission ETV
vector 690 FloodingNetwork.node[132].veinsmobility acceleration ETV
vector 691 FloodingNetwork.node[132].veinsmobility co2emission ETV
vector 692 FloodingNetwork.node[133].veinsmobility acceleration ETV
vector 693 FloodingNetwork.node[133].veinsmobility co2emission ETV
vector 694 FloodingNetwork.node[134].veinsmobility acceleration ETV
vector 695 FloodingNetwork.node[134].veinsmobility co2emission ETV
vector 696 FloodingNetwork.node[135].veinsmobility acceleration ETV
vector 697 FloodingNetwork.node[135].veinsmobility co2emission ETV
vector 698 FloodingNetwork.node[136].veinsmobility acceleration ETV
vector 699 FloodingNetwork.node[136].veinsmobility co2emission ETV
vector 700 FloodingNetwork.node[137].veinsmobility acceleration ETV
vector 701 FloodingNetwork.node[137].veinsmobility co2emission ETV
vector 702 FloodingNetwork.node[138].veinsmobility speed ETV
vector 703 FloodingNetwork.node[139].veinsmobility speed ETV
vector 704 FloodingNetwork.node[140].veinsmobility speed ETV
vector 705 FloodingNetwork.node[141].veinsmobility speed ETV
vector 706 FloodingNetwork.node[142].veinsmobility speed ETV
vector 707 FloodingNetwork.node[138].veinsmobility acceleration ETV
vector 708 FloodingNetwork.node[138].veinsmobility co2emission ETV
vector 709 FloodingNetwork.node[139].veinsmobility acceleration ETV
vector 710 FloodingNetwork.node[139].veinsmobility co2emission ETV
vector 711 FloodingNetwork.node[140].veinsmobility acceleration ETV
vector 712 FloodingNetwork.node[140].veinsmobility co2emission ETV
vector 713 FloodingNetwork.node[141].veinsmobility acceleration ETV
vector 714 FloodingNetwork.node[141].veinsmobility co2emission ETV
vector 715 FloodingNetwork.node[142].veinsmobility acceleration ETV
vector 716 FloodingNetwork.node[142].veinsmobility co2emission ETV
vector 717 FloodingNetwork.node[143].veinsmobility speed ETV
vector 718 FloodingNetwork.node[144].veinsmobility posx ETV
vector 719 FloodingNetwork.node[144].veinsmobility posy ETV
vector 720 FloodingNetwork.node[145].veinsmobility posx ETV
vector 721 FloodingNetwork.node[145].veinsmobility posy ETV
vector 722 FloodingNetwork.node[146].veinsmobility posx ETV
vector 723 FloodingNetwork.node[146].veinsmobility posy ETV
vector 724 FloodingNetwork.node[143].veinsmobility acceleration ETV
vector 725 FloodingNetwork.node[143].veinsmobility co2emission ETV
vector 726 FloodingNetwork.node[147].veinsmobility posx ETV
vector 727 FloodingNetwork.node[147].veinsmobility posy ETV
vector 728 FloodingNetwork.node[144].veinsmobility speed ETV
vector 729 FloodingNetwork.node[145].veinsmobility speed ETV
vector 730 FloodingNetwork.node[146].veinsmobility speed ETV
vector 731 FloodingNetwork.node[144].veinsmobility acceleration ETV
vector 732 FloodingNetwork.node[144].veinsmobility co2emission ETV
vector 733 FloodingNetwork.node[145].veinsmobility acceleration ETV
vector 734 FloodingNetwork.node[145].veinsmobility co2emission ETV
vector 735 FloodingNetwork.node[146].veinsmobility acceleration ETV
vector 736 FloodingNetwork.node[146].veinsmobility co2emission ETV
vector 737 FloodingNetwork.node[147].veinsmobility speed ETV
vector 738 FloodingNetwork.node[147].veinsmobility acceleration ETV
vector 739 FloodingNetwork.node[147].veinsmobility co2emission ETV
vector 740 FloodingNetwork.node[148].veinsmobility posx ETV
vector 741 FloodingNetwork.node[148].veinsmobility posy ETV
vector 742 FloodingNetwork.node[148].veinsmobility speed ETV
vector 743 FloodingNetwork.node[148].veinsmobility acceleration ETV
vector 744 FloodingNetwork.node[148].veinsmobility co2emission ETV
vector 745 FloodingNetwork.node[149].veinsmobility posx ETV
vector 746 FloodingNetwork.node[149].veinsmobility posy ETV
vector 747 FloodingNetwork.node[149].veinsmobility speed ETV
vector 748 FloodingNetwork.node[149].veinsmobility acceleration ETV
vector 749 FloodingNetwork.node[149].veinsmobility co2emission ETV
vector 750 FloodingNetwork.node[71].appl reached_nodes ETV
vector 751 FloodingNetwork.node[71].appl sent_messages ETV
vector 752 FloodingNetwork.node[132].appl reached_nodes ETV
vector 753 FloodingNetwork.node[132].appl sent_messages ETV
0	50143 20117 37 378520 1.2 71.2 701 582.40931842544 1421.65 722407.94424147 792557473.21445
1	70260 15492 37 378520 1.2 71.2 701 276.75 349.55 197229.23740512 55586169.353968
2	85752 18467 37 378520 1.2 71.2 701 1160.45 1428.25 960276.83447251 1319534085.1697
3	104219 17998 37 378520 1.2 71.2 701 1556.75 1966.65 1249175.5115971 2244590887.2988
4	122217 16621 37 378520 1.2 71.2 701 1974.9616674663 1978.25 1386445.71033 2742128566.2913
5	138838 20504 37 378520 1.2 71.2 701 1011.5290378139 1789.55 979938.42185577 1405419166.5365
6	159342 16068 37 378520 1.2 71.2 701 324.95028696467 328.25 229800.80993146 75333556.927972
7	175410 20503 37 378520 1.2 71.2 701 1612.8189668636 2349.55 1389221.5035028 2783642817.7636
8	195913 18483 37 378520 1.2 71.2 701 885.45 1350.0268716029 791005.31484052 898722463.89348
9	214396 17611 37 378520 1.2 71.2 701 453.25 853.25 447938.19592707 304253609.12677
10	232007 19021 37 378520 1.2 71.2 701 861.75 1129.55 647646.71309591 602924323.6633
11	251028 18524 37 378520 1.2 71.2 701 923.35 1333.25 785010.31004176 897924914.94634
12	269552 18972 37 378520 1.2 71.2 701 586.75 854.55 453630.63667997 297861019.72548
13	288524 18206 37 378520 1.2 71.2 701 43.35 453.25 164837.8329621 57514416.448479
14	306730 17015 37 378520 1.2 71.2 701 1961.75 1971.65 1376099.9638674 2701362390.7621
15	323745 21194 37 378520 1.2 71.2 701 454.74525591563 1066.2183310907 515693.58070488 403586941.71254
16	344939 19130 37 378520 1.2 71.2 701 1783.8138719481 2229.55 1395705.3783551 2784618859.9652
17	364069 18648 37 378520 1.2 71.2 701 1716.75 2116.75 1356357.8224154 2642227878.6865
18	382717 17410 37 378520 1.2 71.2 701 318.35 484.7961340885 239184.86568967 82530819.000256
19	400127 20083 37 378520 1.2 71.2 701 846.65 1395.2672059135 766077.37322751 862525512.35893
20	420210 19053 37 378520 1.2 71.2 701 1435.45 1820.349902078 1169106.9137449 1954817498.6672
21	439263 18732 37 378520 1.2 71.2 701 1246.65 1646.65 1039279.6801471 1557674708.7868
22	457995 19152 37 378520 1.2 71.2 701 1795.9488915635 2229.55 1392556.7163274 2772008088.6096
23	477147 18455 37 378520 1.2 71.2 701 683.35 1083.35 603667.55813328 537581027.39251
24	495602 16778 37 378520 1.2 71.2 701 861.75 871.65 604907.44059213 521991926.57604
25	512380 21207 37 378520 1.2 71.2 701 1334.7156633175 2052.7316101918 1170930.1166915 1989736754.5981
26	533587 17996 37 378520 1.2 71.2 701 874.95 1121.8574035349 636722.53652752 581212601.53239
27	551583 19821 37 378520 1.2 71.2 701 1886.65 2460.9 1475034.6852652 3129385102.0116
28	571404 19831 37 378520 1.2 71.2 701 335.45 1018.5786269311 458380.42876187 319774007.44312
29	591235 17631 37 378520 1.2 71.2 701 1813.25 2053.25 1369002.1178218 2681182500.8661
30	608866 20879 37 378520 1.2 71.2 701 885.45 1693.35 920634.95744596 1250789260.3069
31	629745 16392 37 378520 1.2 71.2 701 1249.95 1300.6992295343 878787.68166769 1101698585.0568
32	646137 18983 37 378520 1.2 71.2 701 60.45 578.77740282347 228481.28472128 82249358.097851
33	665120 18563 37 378520 1.2 71.2 701 1726.65 2126.65 1352078.0990471 2626300190.3964
34	683683 18933 37 378520 1.2 71.2 701 1160.45 1531.0194643322 969693.90642769 1345794052.8999
35	702616 18866 37 378520 1.2 71.2 701 1173.25 1569.95 934904.81388816 1263100826.5806
36	721482 19604 37 378520 1.2 71.2 701 2254.1566649058 2810.9 1846780.372006 4887733376.7277
37	741086 18231 37 378520 1.2 71.2 701 1643.35 1960.05 1322278.6212757 2501584732.3955
38	759317 18948 37 378520 1.2 71.2 701 861.75 1311.6722719554 684064.42870963 682083142.73457
39	778265 18732 37 378520 1.2 71.2 701 1420.45 1813.25 1199289.0506786 2062989889.1109
40	796997 17156 37 378520 1.2 71.2 701 1136.75 1146.65 797701.97481193 907748678.19227
41	814153 21191 37 378520 1.2 71.2 701 294.79251570673 986.91653362998 429027.27626706 292503888.00443
42	835344 19620 37 378520 1.2 71.2 701 2473.342198651 2803.25 1899830.2975217 5156284575.743
43	854964 18093 37 378520 1.2 71.2 701 676.75 1006.65 582598.47262796 497699186.4603
44	873057 20376 37 378520 1.2 71.2 701 1184.4901179411 1954.55 1116165.657566 1805852393.1713
45	893433 16541 37 378520 1.2 71.2 701 523.35 680.05 434881.33523559 273116508.53674
46	909974 20296 37 378520 1.2 71.2 701 593.35 1419.0286020796 666708.02074551 683983491.44604
47	930270 16455 37 378520 1.2 71.2 701 209.95 275.20408942704 152597.10693206 33370591.28869
48	946725 20032 37 378520 1.2 71.2 701 758.47844680822 1415.0347508722 825564.73137391 1005430216.1956
49	966757 17163 37 378520 1.2 71.2 701 700.45 923.35 622453.93617111 555166250.18156
50	983920 19681 37 378520 1.2 71.2 701 1136.75 1770.8032247541 937914.8441367 1286591926.6971
51	1003601 17856 37 378520 1.2 71.2 701 540.45 853.25 554312.84326931 444449464.73251
52	1021457 18989 37 378520 1.2 71.2 701 311.75 579.55 263941.32037251 104278073.82905
53	1040446 18355 37 378520 1.2 71.2 701 363.35 773.25 394800.7833312 241355480.50281
54	1058801 18661 37 378520 1.2 71.2 701 36.75 304.55 66813.05950875 10475785.363134
55	1077462 18542 37 378520 1.2 71.2 701 923.35 1333.25 777576.95952018 881126530.41297
56	1096004 19181 37 378520 1.2 71.2 701 1435.45 1937.4857509529 1182863.7522682 2003100156.5622
57	1115185 18584 37 378520 1.2 71.2 701 1173.25 1573.25 958142.61250279 1327903827.6066
58	1133769 17278 37 378520 1.2 71.2 701 1424.959351788 1428.25 1000894.6033026 1429087628.4114
59	1151047 21183 37 378520 1.2 71.2 701 1598.750824902 2349.55 1384626.8577685 2767565721.4598
60	1172230 19162 37 378520 1.2 71.2 701 885.45 1355.1723361859 791880.24646321 900788721.83984
61	1191392 18429 37 378520 1.2 71.2 701 613.25 1013.25 560915.15331473 466876302.4506
62	1209821 20781 37 378520 1.2 71.2 701 1544.2651799816 2246.65 1350239.9985738 2633943292.9457
63	1230602 16619 37 378520 1.2 71.2 701 1396.75 1469.55 982394.35129248 1376858395.6449
64	1247221 17331 37 378520 1.2 71.2 701 2799.9533771901 2803.25 1964769.489688 5506875273.7226
65	1264552 21169 37 378520 1.2 71.2 701 693.23140576899 1469.55 755127.34449629 848575057.16037
66	1285721 19079 37 378520 1.2 71.2 701 885.45 1311.1754222497 784783.76114627 883886355.3123
67	1304800 18366 37 378520 1.2 71.2 701 533.25 933.25 497924.15646098 371263135.21737
68	1323166 17135 37 378520 1.2 71.2 701 1411.75 1421.65 990420.22115369 1399337391.3104
69	1340301 21193 37 378520 1.2 71.2 701 934.77895285401 1630.7540523792 882558.96833854 1141661578.7629
70	1361494 19251 37 378520 1.2 71.2 701 2535.45 2803.25 1919425.1923229 5260577786.9675
71	1380745 18674 37 378520 1.2 71.2 701 1316.75 1726.65 1069931.3538669 1652042837.4734
72	1399419 19159 37 378520 1.2 71.2 701 1710.45 2155.9067035417 1371135.8757803 2687815538.1271
73	1418578 18626 37 378520 1.2 71.2 701 1886.65 2286.65 1476376.2399979 3127310980.4842
74	1437204 17731 37 378520 1.2 71.2 701 29.1 306.38933214527 60143.972426747 8559607.8003243
75	1454935 19729 37 378520 1.2 71.2 701 1166.65 1726.65 969094.28890944 1365244508.8378
76	1474664 17265 37 378520 1.2 71.2 701 2511.75 2515.0253603396 1761036.4075275 4424036569.4611
77	1491929 21181 37 378520 1.2 71.2 701 1340.45 2112.9638883799 1211615.8554349 2129122447.7566
78	1513110 18655 37 378520 1.2 71.2 701 49.963469310225 304.55 77014.262537943 12537435.876851
79	1531765 18160 37 378520 1.2 71.2 701 366.65 756.75 400324.34855496 246174162.53206
80	1549925 20374 37 378520 1.2 71.2 701 895.49091391857 1679.55 920436.43676505 1238845002.3633
81	1570299 17076 37 378520 1.2 71.2 701 1956.75 2116.75 1413454.7000869 2853421064.0825
82	1587375 16164 37 378520 1.2 71.2 701 36.75 46.65 26619.752885646 1016001.1037472
83	1603539 21201 37 378520 1.2 71.2 701 294.79471842266 966.53047477422 424299.08444666 285916618.61845
84	1624740 17274 37 378520 1.2 71.2 701 1693.35 1703.25 1193154.2321712 2030842225.7015
85	1642014 21190 37 378520 1.2 71.2 701 1320.7063085989 2035.2829759307 1192651.3514655 2062661828.3937
86	1663204 19531 37 378520 1.2 71.2 701 1750.6544493454 2253.25 1473857.5560448 3117867201.8987
87	1682735 18211 37 378520 1.2 71.2 701 1636.75 1949.55 1194215.6649225 2040994001.9843
88	1700946 17273 37 378520 1.2 71.2 701 2236.75 2240.0371363169 1568263.9430302 3508491020.1968
89	1718219 21172 37 378520 1.2 71.2 701 620.45 1381.8702783331 700962.26488915 734379722.00352
90	1739391 17212 37 378520 1.2 71.2 701 1418.35 1428.25 1000380.6944753 1427624782.2155
91	1756603 21194 37 378520 1.2 71.2 701 1729.6907425866 2435.2700420355 1476260.9188395 3141523647.6783
92	1777797 19211 37 378520 1.2 71.2 701 894.20906145361 1404.55 806090.55148385 934374484.09698
93	1797008 18586 37 378520 1.2 71.2 701 1076.75 1476.75 897868.83682461 1168338796.183
94	1815594 17364 37 378520 1.2 71.2 701 2799.9590151621 2810.9 1964832.9759034 5507231516.8261
95	1832958 21137 37 378520 1.2 71.2 701 1680.6908489948 2436.75 1449135.1660781 3030050569.2657
96	1854095 19037 37 378520 1.2 71.2 701 2260.45 2528.25 1735133.9897389 4298781431.6808
97	1873132 18860 37 378520 1.2 71.2 701 1636.75 2046.65 1318615.7429382 2497592600.1649
98	1891992 19131 37 378520 1.2 71.2 701 2344.0044160592 2779.55 1782933.5184239 4540280583.2585
99	1911123 18345 37 378520 1.2 71.2 701 436.75 836.75 461100.88517454 321012748.25723
100	1929468 19825 37 378520 1.2 71.2 701 885.45 1358.4257094742 797654.77556293 913878265.78953
101	1949293 19368 37 378520 1.2 71.2 701 1086.65 1486.65 912269.54634001 1205116401.1388
102	1968661 18190 37 378520 1.2 71.2 701 2786.75 2810.9 1954263.1049896 5448144870.695
103	1986851 21862 37 378520 1.2 71.2 701 683.35 1432.3787850988 736427.63744735 807960312.04226
104	2008713 17731 37 378520 1.2 71.2 701 1411.75 1421.65 990514.24880234 1399603909.4384
105	2026444 21886 37 378520 1.2 71.2 701 1494.7604795628 2114.9952071625 1248880.7689993 2250093617.0174
106	2048330 17868 37 378520 1.2 71.2 701 2511.75 2521.65 1761595.6156547 4426851264.4644
107	2066198 21883 37 378520 1.2 71.2 701 214.81056673192 886.75757268146 368222.03628427 222523841.49985
108	2088081 18042 37 378520 1.2 71.2 701 1149.9529693161 1153.25 808119.27847938 931607969.46085
109	2106123 21884 37 378520 1.2 71.2 701 529.72219921613 1309.55 641799.25001295 623176500.24666
110	2128007 18437 37 378520 1.2 71.2 701 2102.7634768186 2246.65 1561138.7146555 3477303866.8409
111	2146444 20898 37 378520 1.2 71.2 701 134.77183374588 683.35 302992.9825905 155775681.40291
112	2167342 17700 37 378520 1.2 71.2 701 586.75 590.04911637545 411655.44572567 241741316.08868
113	2185042 21893 37 378520 1.2 71.2 701 29.1 802.12488750008 288611.88309209 154029976.21847
114	2206935 19871 37 378520 1.2 71.2 701 2036.949318681 2504.55 1584882.2071673 3589453575.0564
115	2226806 19186 37 378520 1.2 71.2 701 916.75 1316.75 792438.97194996 913832000.21304
116	2245992 20696 37 378520 1.2 71.2 701 2189.0822464088 2803.25 1808793.7390083 4696754142.3049
117	2266688 18465 37 378520 1.2 71.2 701 1476.75 1709.55 1060715.8469497 1607942510.2615
118	2285153 19874 37 378520 1.2 71.2 701 1202.841189829 1679.55 1005046.2711973 1447391751.8027
119	2305027 19318 37 378520 1.2 71.2 701 2036.75 2436.75 1575949.4209031 3561052210.2678
120	2324345 19328 37 378520 1.2 71.2 701 49.950666665387 303.85 74141.802309736 11615817.371952
121	2343673 19296 37 378520 1.2 71.2 701 1726.65 2116.75 1356324.2662874 2641504010.6822
122	2362969 18078 37 378520 1.2 71.2 701 1961.75 1965.0428735391 1375514.066968 2699057616.7962
123	2381047 21897 37 378520 1.2 71.2 701 1021.15 1776.8102147388 980900.93763728 1405271095.8086
124	2402944 18622 37 378520 1.2 71.2 701 1686.75 1857.2901264743 1194776.2444514 2037398182.1307
125	2421566 20902 37 378520 1.2 71.2 701 54.863599182805 613.25 252963.99316855 117055186.25399
126	2442468 19505 37 378520 1.2 71.2 701 611.15 1013.4132217039 594384.87574606 509013249.21559
127	2461973 19464 37 378520 1.2 71.2 701 1966.65 2366.65 1538791.1457103 3394996987.2524
128	2481437 19458 37 378520 1.2 71.2 701 324.96210833801 578.85 263279.61249209 102327323.0138
129	2500895 19396 37 378520 1.2 71.2 701 1886.65 2276.75 1479831.3387109 3140370725.2879
130	2520291 18504 37 378520 1.2 71.2 701 2097.9648714957 2246.65 1560862.3409861 3476116158.1651
131	2538795 20998 37 378520 1.2 71.2 701 1654.7736135452 2203.35 1368984.539959 2698405316.8554
132	2559793 17065 37 378520 1.2 71.2 701 36.75 40.044962778804 26081.647239399 971016.83010467
133	2576858 21886 37 378520 1.2 71.2 701 61.15 804.35444968577 305510.56741366 165084258.08923
134	2598744 19828 37 378520 1.2 71.2 701 886.15 1305.4475916961 789418.59390528 894306769.98503
135	2618572 19303 37 378520 1.2 71.2 701 766.65 1166.65 695300.78516019 707075598.30137
136	2637875 17917 37 378520 1.2 71.2 701 2518.35 2528.25 1771456.0740387 4476547926.6354
137	2655792 21891 37 378520 1.2 71.2 701 1753.1007836429 2435.1276347521 1486657.5172823 3182679375.2389
138	2677683 17094 37 378520 1.2 71.2 701 36.75 40.042296214871 26088.642673146 971551.24646166
139	2694777 21878 37 378520 1.2 71.2 701 141.15 863.08460418232 352892.36737001 208126281.36782
140	2716655 19545 37 378520 1.2 71.2 701 324.98204062959 578.85 265800.60637351 104418244.80119
141	2736200 18982 37 378520 1.2 71.2 701 606.65 996.75 573084.22338424 485576625.27281
142	2755182 19845 37 378520 1.2 71.2 701 1418.35 1882.4443115752 1081800.8003908 1684632306.1682
143	2775027 18937 37 378520 1.2 71.2 701 926.65 1235.149566426 711245.92554059 729889241.10356
144	2793964 19201 37 378520 1.2 71.2 701 886.15 1140.0323864388 770826.48649416 851048068.12736
145	2813165 20027 37 378520 1.2 71.2 701 213.25 709.08795957448 270368.61392268 123465774.44635
146	2833192 19397 37 378520 1.2 71.2 701 311.75 657.8416046012 275530.52060804 116743210.17622
147	2852589 19700 37 378520 1.2 71.2 701 1421.15 1813.25 1192955.4152948 2041744100.4242
148	2872289 19519 37 378520 1.2 71.2 701 61.15 471.47491161657 209888.10288955 68002894.419339
149	2891808 19130 37 378520 1.2 71.2 701 453.25 846.65 473193.91615038 336424013.47662
150	2910938 17917 37 378520 1.2 71.2 701 2786.75 2796.65 1954360.1378394 5448683337.5522
151	2928855 21895 37 378520 1.2 71.2 701 294.79812691968 983.9271354433 429397.67446707 293610760.63629
152	2950750 19064 37 378520 1.2 71.2 701 2555.8678430031 2810.2 1936024.3829266 5349279429.4247
153	2969814 20585 37 378520 1.2 71.2 701 1003.35 1563.35 939424.4318055 1284127950.6322
154	2990399 19546 37 378520 1.2 71.2 701 611.15 1053.5210978445 595204.46764852 510854481.7879
155	3009945 19421 37 378520 1.2 71.2 701 1253.25 1653.25 1005959.6799375 1461165367.0442
156	3029366 19588 37 378520 1.2 71.2 701 1902.0926082266 2228.85 1412229.4961433 2849154259.928
157	3048954 19662 37 378520 1.2 71.2 701 1960.05 2356.75 1548256.8962969 3434654716.8949
158	3068616 20594 37 378520 1.2 71.2 701 1689.536020251 2249.95 1434378.4590138 2959767965.0275
159	3089210 18428 37 378520 1.2 71.2 701 2036.75 2195.2123260611 1448336.8010463 2994172415.296
160	3107638 17925 37 378520 1.2 71.2 701 2793.35 2803.25 1964242.4996946 5503925836.0056
161	3125563 21879 37 378520 1.2 71.2 701 1024.9367449771 1715.225307122 978830.59542406 1397429741.6938
162	3147442 17755 37 378520 1.2 71.2 701 2243.35 2253.25 1578649.4653035 3555118360.5043
163	3165197 21901 37 378520 1.2 71.2 701 1419.6943859135 2035.1405321791 1227474.0634206 2174001768.7972
164	3187098 19135 37 378520 1.2 71.2 701 830.95849985153 1128.85 643839.91814274 595308395.70952
165	3206233 19788 37 378520 1.2 71.2 701 1800.05 2196.75 1443852.0101953 2987772415.6981
166	3226021 17867 37 378520 1.2 71.2 701 1968.35 1978.25 1385868.6160697 2739851061.8631
167	3243888 21900 37 378520 1.2 71.2 701 1724.6643157424 2355.2310564542 1446160.9009245 3009569815.4577
168	3265788 17853 37 378520 1.2 71.2 701 2243.35 2253.25 1578646.2087996 3555103601.9056
169	3283641 21893 37 378520 1.2 71.2 701 1324.5862385899 1955.2241878519 1165753.1047384 1964790135.8909
170	3305534 19070 37 378520 1.2 71.2 701 2249.9515415496 2503.85 1602844.4959961 3668096671.4579
171	3324604 20396 37 378520 1.2 71.2 701 1903.0681516497 2436.75 1574504.338457 3558309055.6445
172	3345000 19184 37 378520 1.2 71.2 701 2261.15 2528.25 1745224.0262848 4348662386.1828
173	3364184 20392 37 378520 1.2 71.2 701 1590.5789534812 2126.65 1356968.4823178 2648723430.0492
174	3384576 17915 37 378520 1.2 71.2 701 1961.75 1971.65 1376047.9426304 2701157652.3433
175	3402491 21901 37 378520 1.2 71.2 701 214.84833888228 880.80237381288 366247.95279646 219991568.60992
176	3424392 20353 37 378520 1.2 71.2 701 1712.4189550637 2228.85 1379106.7823651 2723239180.1651
177	3444745 18049 37 378520 1.2 71.2 701 603.35 836.75 503649.71309978 369100768.33169
178	3462794 19168 37 378520 1.2 71.2 701 1961.75 2228.85 1402454.1968746 2809555255.7403
179	3481962 20207 37 378520 1.2 71.2 701 283.35 818.9404502449 331673.61798079 178814241.9624
180	3502169 18540 37 378520 1.2 71.2 701 2109.360172509 2240.0258876533 1561678.4564587 3479584884.4038
181	3520709 21087 37 378520 1.2 71.2 701 1741.15 2363.35 1469852.1919031 3109652008.1255
182	3541796 18057 37 378520 1.2 71.2 701 1686.75 1690.0400052977 1182732.6852529 1995516455.1909
183	3559853 21888 37 378520 1.2 71.2 701 61.15 774.33009558394 294280.40731893 153489352.71482
184	3581741 19302 37 378520 1.2 71.2 701 1411.75 1678.85 1019239.5074381 1485925738.2537
185	3601043 20052 37 378520 1.2 71.2 701 603.35 1100.180281608 544358.76606662 442073548.0914
186	3621095 17443 37 378520 1.2 71.2 701 36.75 122.785438385 30038.205877544 1457002.3062841
187	3638538 21369 37 378520 1.2 71.2 701 301.15 929.95 452397.16324227 318731738.97092
188	3659907 17769 37 378520 1.2 71.2 701 1143.35 1153.25 807540.94805758 930279907.71434
189	3677676 21887 37 378520 1.2 71.2 701 1497.1108885574 2115.2313851286 1282801.1242237 2372433853.8228
190	3699563 16892 37 378520 1.2 71.2 701 36.75 46.65 26613.902503578 1015433.5693595
191	3716455 21909 37 378520 1.2 71.2 701 1334.7897302798 2018.3506809301 1156524.3224624 1938168676.1017
192	3738364 19081 37 378520 1.2 71.2 701 36.75 303.85 60316.05940523 8886892.2381684
193	3757445 19448 37 378520 1.2 71.2 701 203.35 613.25 260216.72733997 113479897.29159
194	3776893 19564 37 378520 1.2 71.2 701 886.15 1209.7008884022 776999.30659845 865718704.48185
195	3796457 19697 37 378520 1.2 71.2 701 1566.65 1966.65 1276515.7142734 2339355794.826
196	3816154 19679 37 378520 1.2 71.2 701 2261.15 2528.25 1736670.6717671 4306481889.8196
197	3835833 19699 37 378520 1.2 71.2 701 2040.05 2446.65 1607607.5632426 3702711373.5971
198	3855532 19848 37 378520 1.2 71.2 701 1711.15 2150.4300963922 1371025.0330578 2687040632.1826
199	3875380 19392 37 378520 1.2 71.2 701 1086.65 1486.65 915631.41991551 1213651240.3639
200	3894772 16914 37 378520 1.2 71.2 701 36.75 46.65 26615.257804495 1015532.9122055
201	3911686 21902 37 378520 1.2 71.2 701 54.764361086846 737.38514727588 258685.54598167 125314146.10062
202	3933588 17945 37 378520 1.2 71.2 701 1686.75 1696.65 1183258.2784037 1997294749.9502
203	3951533 21896 37 378520 1.2 71.2 701 374.77581358968 1044.7972922774 478365.44286591 355091915.84169
204	3973429 18060 37 378520 1.2 71.2 701 2236.75 2240.041784108 1568286.435014 3508591698.6113
205	3991489 21893 37 378520 1.2 71.2 701 221.15 975.96805860244 419094.75135723 283340402.14745
206	4013382 19868 37 378520 1.2 71.2 701 1992.1717382775 2503.85 1571035.8669642 3527915526.2307
207	4033250 19230 37 378520 1.2 71.2 701 843.35 1243.35 729030.8806256 776184674.91823
208	4052480 17926 37 378520 1.2 71.2 701 1686.75 1696.65 1183218.8167118 1997161303.944
209	4070406 21886 37 378520 1.2 71.2 701 294.80370316225 989.22874454078 432739.45076751 298172609.77
210	4092292 17095 37 378520 1.2 71.2 701 36.75 40.04927772742 26090.156133106 971665.25873934
211	4109387 21893 37 378520 1.2 71.2 701 781.15 1526.7410961998 809286.9901101 966372425.93222
212	4131280 19925 37 378520 1.2 71.2 701 1149.9698139438 1665.6905801723 896071.92142591 1164005969.4169
213	4151205 18993 37 378520 1.2 71.2 701 369.95 748.85 325870.99212526 161580030.22313
214	4170198 19217 37 378520 1.2 71.2 701 874.99035379144 1128.85 647199.17287493 601241490.25159
215	4189415 19609 37 378520 1.2 71.2 701 1886.65 2276.75 1497771.6311257 3214306686.274
216	4209024 17758 37 378520 1.2 71.2 701 2511.75 2521.65 1761623.7678239 4426993068.0339
217	4226782 21901 37 378520 1.2 71.2 701 1334.8548195243 1951.8506380222 1135392.463933 1863814583.8186
218	4248683 17920 37 378520 1.2 71.2 701 1411.75 1421.65 990476.82103497 1399497571.9803
219	4266603 21896 37 378520 1.2 71.2 701 1014.8033903232 1701.5352109576 933345.7250018 1273067766.6674
220	4288499 19573 37 378520 1.2 71.2 701 599.95135701005 853.85 460334.5645052 306174575.28007
221	4308072 19291 37 378520 1.2 71.2 701 2046.65 2436.75 1578971.0054459 3573810141.7042
222	4327363 19572 37 378520 1.2 71.2 701 61.15 526.14331923034 213304.42174674 70819607.970201
223	4346935 19396 37 378520 1.2 71.2 701 1253.25 1653.25 1009621.2312139 1471925133.7855
224	4366331 18064 37 378520 1.2 71.2 701 29.8 214.50832095935 39909.742739474 3568934.6634051
225	4384395 20804 37 378520 1.2 71.2 701 1253.25 1813.25 1109690.4960628 1780888816.9994
226	4405199 18071 37 378520 1.2 71.2 701 1411.75 1415.0355400017 989965.64587381 1398049105.4242
227	4423270 21886 37 378520 1.2 71.2 701 301.15 1045.2373594854 472003.23499551 349775585.36379
228	4445156 18258 37 378520 1.2 71.2 701 318.35 521.3016453456 241928.2713818 84910473.790767
229	4463414 20825 37 378520 1.2 71.2 701 1573.25 2115.1752822857 1268293.1772582 2319775765.8896
230	4484239 19827 37 378520 1.2 71.2 701 2086.6202831495 2503.85 1587195.6594212 3598976639.2025
231	4504066 19411 37 378520 1.2 71.2 701 1163.35 1563.35 937763.16207071 1271911182.6724
232	4523477 18007 37 378520 1.2 71.2 701 2799.9602887274 2810.2 1964835.8832462 5507247728.0342
233	4541484 21856 37 378520 1.2 71.2 701 1492.5633155304 2196.75 1296355.4964899 2427507038.5202
234	4563340 18618 37 378520 1.2 71.2 701 1411.75 1549.034704842 997995.56109429 1421395231.7379
235	4581958 21134 37 378520 1.2 71.2 701 541.15 1173.25 632749.86922698 599506245.27248
236	4603092 18140 37 378520 1.2 71.2 701 2799.9562763145 2803.25 1964745.2408521 5506739375.1861
237	4621232 21892 37 378520 1.2 71.2 701 1560.9999555275 2265.5 1339035.3581721 2586652053.6722
238	4643124 21913 37 378520 1.2 71.2 701 1575.3636927146 2235.1825857458 1375771.7536639 2726185609.3014
239	4665037 15532 37 378520 1.2 71.2 701 36.75 46.65 28381.722700115 1160320.2225671
240	4680569 21042 37 378520 1.2 71.2 701 1140.05 1562.1199238328 898030.37327776 1161368328.2382
241	4701611 17999 37 378520 1.2 71.2 701 1003.35 1173.25 773172.02986909 856771775.82375
242	4719610 18050 37 378520 1.2 71.2 701 2786.75 2796.65 1954349.9111651 5448626094.5488
243	4737660 21905 37 378520 1.2 71.2 701 214.86476470655 862.39989666435 362096.93861144 214340503.64789
244	4759565 17705 37 378520 1.2 71.2 701 49.953995500336 169.71414797748 42226.055460173 2906733.820531
245	4777270 21168 37 378520 1.2 71.2 701 1486.65 2105.5 1230665.5335527 2187266340.3956
246	4798438 19594 37 378520 1.2 71.2 701 2155.5737419276 2492.05 1597800.2806528 3645393097.0538
247	4818032 19819 37 378520 1.2 71.2 701 1960.05 2356.75 1538456.2698319 3391993827.5233
248	4837851 19047 37 378520 1.2 71.2 701 36.75 292.05 55759.544684172 7676249.9015809
249	4856898 19470 37 378520 1.2 71.2 701 43.35 449.95 146742.50168544 46826804.933121
250	4876368 20366 37 378520 1.2 71.2 701 311.75 629.41148890883 286970.38113159 124619677.96016
251	4896734 18789 37 378520 1.2 71.2 701 1403.35 1653.25 1079413.3914801 1670125892.3725
252	4915523 19243 37 378520 1.2 71.2 701 49.959265590275 422.24904949542 94922.03908005 22432958.640813
253	4934766 19084 37 378520 1.2 71.2 701 49.95 417.05 106625.70347289 26100466.703398
254	4953850 20702 37 378520 1.2 71.2 701 2182.082520247 2790.040769144 1804374.2389465 4674083589.5631
255	4974552 18501 37 378520 1.2 71.2 701 1352.95 1560.05 1070519.5963319 1637045753.6654
256	4993053 21885 37 378520 1.2 71.2 701 847.45840423084 1664.8 873556.71599064 1127543344.9072
257	5014938 17046 37 378520 1.2 71.2 701 2036.75 2043.35 1428675.854252 2911720795.8869
258	5031984 20052 37 378520 1.2 71.2 701 2275.2 2528.25 1729629.8635205 4271681196.1387
259	5052036 19145 37 378520 1.2 71.2 701 916.75 1246.65 762548.1153026 842016908.9241
260	5071181 17677 37 378520 1.2 71.2 701 861.75 865.04500179685 604436.07325721 521174656.85451
261	5088858 21895 37 378520 1.2 71.2 701 155.2 813.33883551676 338290.37322597 188124964.71785
262	5110753 21875 171 378520 1.3 71.2 700 5.7465983559141 14.322586308772 9026.4633764531 120385.9666921
263	5132628 21878 171 378520 1.3 71.2 700 6.0605867865826 13.787756800249 8409.8622995504 105029.3783012
264	5154506 21903 171 378520 1.3 71.2 700 5.7538147618983 16.067141138661 7818.0207120872 93625.193380338
265	5176409 21851 171 378520 1.3 71.2 700 5.878546212938 14.210728458782 7410.2786913897 82612.648719379
266	5198260 21894 171 378520 1.3 71.2 700 5.7666042312373 14.059494843924 8478.2873351199 107199.15434746
267	5220154 21893 171 378520 1.3 71.2 700 5.746160944072 15.629988543013 8922.2082185585 120836.6831948
268	5242047 21900 171 378520 1.3 71.2 700 5.7280940426898 14.782120025569 8694.8896589164 113683.62978373
269	5263947 21819 171 378520 1.3 71.2 700 5.811369001028 10.421043349689 6708.7392312225 65485.965589369
270	5285766 21900 171 378520 1.3 71.2 700 5.8696103714605 13.540348724608 8289.3933147502 101950.46446492
271	5307666 21893 171 378520 1.3 71.2 700 5.7450474257391 12.597070482898 7569.4509685176 85060.687296564
272	5329559 21907 171 378520 1.3 71.2 700 6.0017933200692 12.054226852109 7679.5047152656 86341.214188169
273	5351466 21869 171 378520 1.3 71.2 700 5.7365815597035 13.347808128484 8167.8076587503 99021.98181105
274	5373335 21905 171 378520 1.3 71.2 700 5.7444756316831 16.507484323841 7784.6904549419 92691.535687998
275	5395240 21897 171 378520 1.3 71.2 700 5.7280509981422 14.35500647673 8132.4441161888 99710.235412494
276	5417137 21900 171 378520 1.3 71.2 700 5.8408755672549 14.918415524113 9061.4906947937 122569.27625867
277	5439037 21896 171 378520 1.3 71.2 700 5.7901043090831 12.910538917285 8491.8320289978 104971.30811993
278	5460933 21862 171 378520 1.3 71.2 700 5.7521151614409 16.296036382994 9007.7454246555 124109.22816934
279	5482795 21869 171 378520 1.3 71.2 700 5.7420322907903 12.054611929893 7536.2215073036 83420.406333484
280	5504664 21874 171 378520 1.3 71.2 700 5.6764385412207 14.763190596761 8594.4211242827 111423.02760521
281	5526538 21867 171 378520 1.3 71.2 700 5.780454729477 13.555070348698 8274.4264557494 101679.64759315
282	5548405 21873 171 378520 1.3 71.2 700 5.7199940269404 15.559550735069 7518.5318197213 86052.255134034
283	5570278 21884 171 378520 1.3 71.2 700 5.7581998297405 15.719307682547 9005.9539151941 122931.02974528
284	5592162 21879 171 378520 1.3 71.2 700 5.7309205527795 14.58596918505 9127.2379708221 123473.61221861
285	5614041 21892 171 378520 1.3 71.2 700 5.9425000582994 15.517624616265 9347.9149278484 131092.95083575
286	5635933 21872 171 378520 1.3 71.2 700 5.7364506071138 14.159618209845 8710.6063679313 112755.12396399
287	5657805 21908 171 378520 1.3 71.2 700 5.9200072820607 16.83806640837 9319.0054136444 132953.72815436
288	5679713 21881 171 378520 1.3 71.2 700 5.7810431857403 16.140588639526 9079.8653444136 125427.69385202
289	5701594 21868 171 378520 1.3 71.2 700 5.7961957866622 14.024556308172 8463.7724821144 106802.52422887
290	5723462 21886 171 378520 1.3 71.2 700 5.8976123130381 15.13740520061 8851.6229592444 117889.09843455
291	5745348 21884 171 378520 1.3 71.2 700 5.8041949735763 13.04850776772 7549.8112635778 85221.86722015
292	5767232 21849 171 378520 1.3 71.2 700 5.8347374138559 14.282550519593 8529.940031255 108834.74196623
293	5789081 21886 171 378520 1.3 71.2 700 5.7712727009758 11.411685344669 7653.3094256357 84630.590203615
294	5810967 21887 171 378520 1.3 71.2 700 5.7579179769468 16.633227253134 7800.4736845407 93352.977923067
295	5832854 21883 171 378520 1.3 71.2 700 5.7727389628775 13.121510514717 8088.8707331293 96901.030705559
296	5854737 21866 171 378520 1.3 71.2 700 5.8161302869083 17.034868725169 7556.513871225 86777.273008929
297	5876603 21890 171 378520 1.3 71.2 700 5.7962555723994 16.246024390828 9099.1196860029 126116.86582866
298	5898493 21874 171 378520 1.3 71.2 700 5.8906022003493 13.540170116152 8286.5260842042 101884.86828441
299	5920367 21899 171 378520 1.3 71.2 700 5.7209912500046 15.305455060101 8204.7537257006 102755.86177009
300	5942266 21884 171 378520 1.3 71.2 700 5.7497795599715 14.697460486576 7761.248663359 91601.892429305
301	5964150 21870 171 378520 1.3 71.2 700 5.79991499977 14.241955921633 8543.8202917868 109025.89934679
302	5986020 21879 171 378520 1.3 71.2 700 5.7333824714265 14.882625801602 9263.0908144852 127276.01217088
303	6007899 21891 171 378520 1.3 71.2 700 5.7430928997506 12.275897631477 7319.8802858286 79506.654516276
304	6029790 21835 171 378520 1.3 71.2 700 5.737719613074 15.341729864767 7749.5652666634 91569.546977697
305	6051625 21893 171 378520 1.3 71.2 700 5.9070450882864 12.477362468241 7996.8641803054 93617.188201999
306	6073518 21910 171 378520 1.3 71.2 700 5.7878858134357 13.640096094493 7652.467271633 87875.449968506
307	6095428 21878 171 378520 1.3 71.2 700 5.7109042473998 14.395622066299 7655.0520598022 88949.821810776
308	6117306 21859 171 378520 1.3 71.2 700 5.8411376105671 15.532658389703 8931.8078719252 120614.06264969
309	6139165 21890 171 378520 1.3 71.2 700 5.7045084407753 14.164909258535 7667.6076608086 88825.510545434
310	6161055 21910 171 378520 1.3 71.2 700 5.9804566290594 12.106565031783 7697.5128015035 86804.69575897
311	6182965 21900 171 378520 1.3 71.2 700 5.8343903331494 13.250206160891 8187.1597357253 99143.45872498
312	6204865 21883 171 378520 1.3 71.2 700 5.7907079164354 14.852119891176 8563.0241679952 110333.41200646
[...]
551	19625625 8902 379139 528540 71.3 98.8 276 -4 2.4 8.9407530406847 422.00517612384
552	19634527 7914 379139 528540 71.3 98.8 276 0.973 7.8151114856484 692.63542008518 2523.8986791598
553	19642441 7714 379139 528540 71.3 98.8 276 -4 2.4 64.420832571552 1789.9124117272
554	19650155 7989 379139 528540 71.3 98.8 276 0.973 10.072175331263 1314.4920568071 8258.8330605724
555	19658144 8378 379139 528540 71.3 98.8 276 -4 2.4 43.773967410104 949.35360114722
556	19666522 7909 379139 528540 71.3 98.8 276 0.973 7.8823058275465 838.20415225558 3622.7959015621
557	19674431 8826 379139 528540 71.3 98.8 276 -4 2.4 -35.776043584275 509.48346355359
558	19683257 7703 379139 528540 71.3 98.8 276 0.973 7.0960863247983 622.12298112091 1999.6481824649
559	19690960 8332 379139 528540 71.3 98.8 276 -4 2.4 11.891624364834 1001.2958950564
560	19699292 7786 379139 528540 71.3 98.8 276 0.973 8.2252473760225 843.73692899388 3782.8900322887
561	19707078 8337 379139 528540 71.3 98.8 276 -4 2.4 12.782409126512 995.89285506366
562	19715415 7846 379139 528540 71.3 98.8 276 0.973 7.8590804422858 841.22023521283 3731.0997643884
563	19723261 7845 379139 528540 71.3 98.8 276 -4 2.4 65.936429591843 1585.2814605766
564	19731106 7998 379139 528540 71.3 98.8 276 0.973 9.4432755503339 1190.3126996549 6854.2007908545
565	19739104 7725 379139 528540 71.3 98.8 276 -4 2.4 21.151963046106 1688.8016561254
566	19746829 7938 379139 528540 71.3 98.8 276 0.973 9.7387346907265 1145.3991350624 6545.4278419685
567	19754767 8264 379139 528540 71.3 98.8 276 -4 2.4 0.28508302437151 1194.2468555256
568	19763031 7860 379139 528540 71.3 98.8 276 0.973 8.8972121542495 920.24646047886 4407.1317930232
569	19770891 8754 379139 528540 71.3 98.8 276 -4 2.4 47.391992836857 517.09168169344
570	19779645 7861 379139 528540 71.3 98.8 276 0.973 8.3253856108662 764.61050792105 3039.0223384845
571	19787506 7829 379139 528540 71.3 98.8 276 -4 2.4 23.442921697866 1682.6005473015
572	19795335 7929 379139 528540 71.3 98.8 276 0.973 9.6381833800427 1147.5703564498 6556.811284221
573	19803264 8512 379139 528540 71.3 98.8 276 -4 2.4 -0.60963210909619 829.93291243733
574	19811776 7850 379139 528540 71.3 98.8 276 0.973 9.1674499892506 823.71034240514 3590.8083471359
575	19819626 8141 379139 528540 71.3 98.8 276 -4 2.4 -18.614345328167 1265.364445258
576	19827767 7821 379139 528540 71.3 98.8 276 0.973 8.8008661426429 910.72366396521 4398.2334112151
577	19835588 8039 379139 528540 71.3 98.8 276 -4 2.4 -63.228617998853 1432.2147619267
578	19843627 7702 379139 528540 71.3 98.8 276 0.973 8.9059541164333 896.78476982303 4438.2448797492
579	19851329 8587 379139 528540 71.3 98.8 276 -4 2.4 0.096186176156707 716.30430562272
580	19859916 7827 379139 528540 71.3 98.8 276 0.973 7.8277129311186 751.58208355248 2969.7248435346
581	19867743 8365 379139 528540 71.3 98.8 276 -4 2.4 36.177705500114 983.2184898838
582	19876108 7859 379139 528540 71.3 98.8 276 0.973 7.7967933252108 861.4986419297 3855.4991918404
583	19883967 7851 379139 528540 71.3 98.8 276 -4 2.4 14.806305928151 1618.4388645581
584	19891818 7892 379139 528540 71.3 98.8 276 0.973 9.5752057963611 1106.4029345383 6140.9049616824
585	19899710 8109 379139 528540 71.3 98.8 276 -4 2.4 -18.0095554985 1305.6262231565
586	19907819 7851 379139 528540 71.3 98.8 276 0.973 9.1756159502855 961.5529995469 4843.6569467783
587	19915670 8674 379139 528540 71.3 98.8 276 -4 2.4 -17.742518437426 648.24114343575
588	19924344 7847 379139 528540 71.3 98.8 276 0.973 7.8043654192016 685.09479335908 2454.9971784873
589	19932191 8604 379139 528540 71.3 98.8 276 -4 2.4 1.0105337253772 704.76180616968
590	19940795 7795 379139 528540 71.3 98.8 276 0.973 7.995049033925 748.37062288511 2956.3549328599
591	19948590 7874 379139 528540 71.3 98.8 276 -4 2.4 -35.851357209994 1585.057690974
592	19956464 7797 379139 528540 71.3 98.8 276 0.973 9.9174807959611 1045.7464601636 5815.2894966301
593	19964261 7769 379139 528540 71.3 98.8 276 -4 2.4 10.739497401198 1635.2506058135
594	19972030 7911 379139 528540 71.3 98.8 276 0.973 9.265312118772 1102.3209045894 6055.472054437
595	19979941 7668 379139 528540 71.3 98.8 276 -4 2.4 -28.082033768962 1877.9607407987
596	19987609 7785 379139 528540 71.3 98.8 276 0.973 9.7419382913378 1138.8523242889 6618.6782648683
597	19995394 7666 379139 528540 71.3 98.8 276 -4 2.4 6.2519005161558 1797.3240337775
598	20003060 7900 379139 528540 71.3 98.8 276 0.973 9.6314455783803 1178.1111729104 6855.59276509
599	20010960 7573 379139 528540 71.3 98.8 276 -4 2.4 47.347269872181 1911.8570684597
600	20018533 7977 379139 528540 71.3 98.8 276 0.973 10.281793454367 1324.6388746106 8372.5379362493
601	20026510 8128 379139 528540 71.3 98.8 276 -4 2.4 64.892092175163 1467.9704774861
602	20034638 7956 379139 528540 71.3 98.8 276 0.973 10.17154179557 1164.418165075 6593.338780619
603	20042594 7629 379139 528540 71.3 98.8 276 -4 2.4 -31.141078303301 1902.3541008648
604	20050223 7833 379139 528540 71.3 98.8 276 0.973 9.9100813438006 1144.1464676244 6636.4591720176
605	20058056 8366 379139 528540 71.3 98.8 276 -4 2.4 47.36659728793 1094.0219844183
606	20066422 8030 379139 528540 71.3 98.8 276 0.973 10.84928268621 1146.554472021 6848.6016170851
607	20074452 8889 379139 528540 71.3 98.8 276 -4 2.4 -32.948772033582 502.62866068602
608	20083341 7653 379139 528540 71.3 98.8 276 0.973 7.0226744809645 622.75606158888 2020.9472065331
609	20090994 8443 379139 528540 71.3 98.8 276 -4 2.4 32.992226088947 912.87378067774
610	20099437 7906 379139 528540 71.3 98.8 276 0.973 7.6392610059217 828.90381716093 3540.8579643805
611	20107343 7809 379139 528540 71.3 98.8 276 -4 2.4 37.729997810821 1683.4732422172
612	20115152 7972 379139 528540 71.3 98.8 276 0.973 9.681213666963 1186.8555924069 6898.8961619541
613	20123124 7687 379139 528540 71.3 98.8 276 -4 2.4 -45.611532770877 1888.2447068701
614	20130811 7825 379139 528540 71.3 98.8 276 0.973 9.8564007754101 1137.8368255814 6581.8466632126
615	20138636 7548 379139 528540 71.3 98.8 276 -4 2.4 -45.164684603792 1890.9424343144
616	20146184 7790 379139 528540 71.3 98.8 276 0.973 10.483777712488 1129.2017579769 6553.7077036527
617	20153974 8920 379139 528540 71.3 98.8 276 -4 2.4 0.55298665115615 416.68227466528
618	20162894 7889 379139 528540 71.3 98.8 276 0.973 8.5466193520312 691.64238721686 2463.6123248433
619	20170783 7660 379139 528540 71.3 98.8 276 -4 2.4 -22.586935643131 1756.1171772262
620	20178443 7830 379139 528540 71.3 98.8 276 0.973 9.856449021091 1103.3396339393 6112.9468250914
621	20186273 8360 379139 528540 71.3 98.8 276 -4 2.4 -37.612518957517 1039.2174022565
622	20194633 7905 379139 528540 71.3 98.8 276 0.973 10.70363413215 902.71726596824 4376.881190564
623	20202538 8165 379139 528540 71.3 98.8 276 -4 2.4 -0.55831643468683 1307.0381698664
624	20210703 7804 379139 528540 71.3 98.8 276 0.973 8.9885240095097 984.54307379674 5151.2567833673
625	20218507 8209 379139 528540 71.3 98.8 276 -4 2.4 40.968735407661 1225.473711963
626	20226716 7930 379139 528540 71.3 98.8 276 0.973 8.8979589532506 1010.0487794048 5106.68193788
627	20234646 8759 379139 528540 71.3 98.8 276 -4 2.4 0.40944217013202 581.41295316247
628	20243405 7840 379139 528540 71.3 98.8 276 0.973 8.6684969471285 777.21868065554 3211.0646685619
629	20251245 7922 379139 528540 71.3 98.8 276 -4 2 52.072987035912 1410.2723522327
630	20259167 8099 379139 528540 71.3 98.8 276 0.973 8.6628390889316 1167.6545180595 6214.4141783171
631	20267266 8815 379139 528540 71.3 98.8 276 -4 2 0.21868980815638 519.11609088705
632	20276081 7921 379139 528540 71.3 98.8 276 0.973 8.9683465656642 796.94930632589 3279.590661047
633	20284002 9059 379139 528540 71.3 98.8 276 -3.9999987056368 2 0.15251316353677 445.54676489298
634	20293061 8244 379139 528540 71.3 98.8 276 0.973 7.6280504588792 711.2970855362 2493.9204477302
635	20301305 7710 379139 528540 71.3 98.8 276 -4 2 -54.667775181646 1695.0336413857
636	20309015 7925 379139 528540 71.3 98.8 276 0.973 8.322029719511 1097.009002444 5724.466290385
637	20316940 8584 379139 528540 71.3 98.8 276 -4 2 0.39391775559638 800.99655380597
638	20325524 8009 379139 528540 71.3 98.8 276 0.973 8.109982960929 838.41980892267 3471.7029291095
639	20333533 8576 379139 528540 71.3 98.8 276 -4 1.5 -0.33582625693467 653.91767131459
640	20342109 8132 379139 528540 71.3 98.8 276 0.973 6.2681332179927 753.50066256045 2576.0210805548
641	20350241 8516 379139 528540 71.3 98.8 276 -4 1.5 -18.39829333831 701.21814557558
642	20358757 8082 379139 528540 71.3 98.8 276 0.973 5.8956107636349 755.05208417721 2581.4191225563
643	20366839 8751 379139 528540 71.3 98.8 276 -4 1.5 26.149957343667 490.27472624206
644	20375590 8129 379139 528540 71.3 98.8 276 0.973 6.980714936834 839.12972332064 3299.7733731366
645	20383719 8813 379139 528540 71.3 98.8 276 -4 1.5 0.53875900918504 422.74267948227
646	20392532 8060 379139 528540 71.3 98.8 276 0.973 6.18683234388 733.24223359196 2491.0953380345
647	20400592 8703 379139 528540 71.3 98.8 276 -4 1.5 12.84734680054 513.82064592701
648	20409295 8131 379139 528540 71.3 98.8 276 0.973 7.3642216393767 843.96833192268 3387.0449939355
651	20417426 8373 379139 528540 71.3 98.8 276 -4 1.5 -63.836943285516 786.80724594341
652	20425799 7946 379139 528540 71.3 98.8 276 0.973 6.8511362998962 747.96871501671 2649.5709414211
653	20433745 7986 379139 528540 71.3 98.8 276 -4 1.5 -62.696664407233 1248.0947579681
654	20441731 8088 379139 528540 71.3 98.8 276 0.973 6.276516458641 854.37256650941 3247.3528625149
655	20449819 7898 379139 528540 71.3 98.8 276 1816.3836341087 1968.1505612244 533460.38278104 1031657603.1187
656	20457717 7698 379139 528540 71.3 98.8 276 613.25 773.7534605559 182050.58223227 120884094.60584
657	20465415 7213 379139 528540 71.3 98.8 276 1423.7504237638 1428.25 393880.62131344 562109098.88477
658	20472628 8746 379139 528540 71.3 98.8 276 286.82561136112 576.47028059707 118678.99502561 53014958.951441
659	20481374 6933 378520 528540 71.2 98.8 277 861.75 865.03360553464 238808.83816568 205883463.56818
660	20488307 8782 378520 528540 71.2 98.8 277 775.3209309665 1035.792814592 250575.07374348 228186013.34062
661	20497089 8545 378520 528540 71.2 98.8 277 603.25 914.91085211747 205199.19154159 155016584.09482
662	20505634 7041 378520 528540 71.2 98.8 277 1922.3785950933 1960.05 541566.31691795 1058833722.0929
663	20512675 8767 378520 528540 71.2 98.8 277 338.06393382453 747.94825214878 150536.93395838 85650537.22116
664	20521442 6514 378520 528540 71.2 98.8 277 916.75 920.05 254490.8516997 233811498.74309
665	20527956 7451 378520 528540 71.2 98.8 277 522.24289038034 608.05082035841 164415.08748016 97694658.493639
666	20535407 8353 378520 528540 71.2 98.8 277 1493.25 1726.65 451846.89412225 738790258.37307
667	20543760 8790 378520 528540 71.2 98.8 277 2391.8821849172 2675.2124197109 701780.0078218 1779771655.6787
668	20552550 6531 378520 528540 71.2 98.8 277 676.75 680.05 187661.5336329 127137132.16499
669	20559081 8048 378520 528540 71.2 98.8 277 1513.1715686916 1690.046792363 454778.25423636 747494967.96375
670	20567129 7567 378520 528540 71.2 98.8 277 1573.25 1696.5508326577 443088.63425426 709160068.71655
671	20574696 7206 378520 528540 71.2 98.8 277 2799.9629454407 2803.25 776387.55738572 2176092783.9192
672	20581902 8778 378520 528540 71.2 98.8 277 691.70405764743 985.92212519926 231682.87955164 195794303.95152
673	20590680 8232 378520 528540 71.2 98.8 277 91.256882935994 315.05 66684.736924996 17546343.646697
674	20598912 7146 378520 528540 71.2 98.8 277 449.95 536.67019625835 129265.01021862 60491446.414345
675	20606058 6990 378520 528540 71.2 98.8 277 36.75 40.032815818077 10324.931723385 385122.88555895
676	20613048 8784 378520 528540 71.2 98.8 277 832.93814041331 1118.6876346031 270141.18198487 265340860.44172
679	20621832 8747 379139 528540 71.3 98.8 276 5.8880456314064 13.021163285762 3065.1858786603 35378.907662598
680	20630579 8738 379139 528540 71.3 98.8 276 5.7505520377555 13.102683696246 2917.4113047872 32402.381322868
681	20639317 8790 378520 528540 71.2 98.8 277 5.7455737555335 13.175496760905 2623.1259005837 25682.693051767
682	20648107 8781 378520 528540 71.2 98.8 277 5.7844392740094 15.641916267049 3466.0706354346 45947.286525744
683	20656888 8774 378520 528540 71.2 98.8 277 6.1129969830967 16.691298925597 4109.1089187257 63473.722401164
684	20665662 8764 378520 528540 71.2 98.8 277 5.7727675827681 15.092959267263 3079.6468324677 36685.487213166
685	20674426 8779 378520 528540 71.2 98.8 277 5.8191215038226 10.649360348761 2847.1332442193 29500.70430234
686	20683205 8782 378520 528540 71.2 98.8 277 1567.6639588978 1920.8394639423 482513.55494937 843258661.11648
687	20691987 6783 378520 528540 71.2 98.8 277 1956.75 1960.05 542222.09040096 1061389639.9529
688	20698770 8238 379139 528540 71.3 98.8 276 -4 2.6 -7.8965718396424 1258.9258010475
689	20707008 7809 379139 528540 71.3 98.8 276 0.973 9.7989085476345 918.56118310545 4895.8053774331
690	20714817 7860 379139 528540 71.3 98.8 276 -4 2.6 -27.49767423451 1718.201870009
691	20722677 7854 378520 528540 71.2 98.8 277 0.973 10.021039547621 1024.4350822335 5829.3377555563
692	20730531 8526 378520 528540 71.2 98.8 277 -4 2.6 -35.83786941207 1430.4223736718
693	20739057 7745 378520 528540 71.2 98.8 277 0.973 9.7826311095033 957.75087317928 5356.4418767569
694	20746802 8541 378520 528540 71.2 98.8 277 -4 2.6 -10.123657943145 1186.4798883225
695	20755343 7881 378520 528540 71.2 98.8 277 0.973 10.234817027758 1010.0620177902 5815.6285162111
696	20763224 8466 378520 528540 71.2 98.8 277 -4 2.6 -95.7183994581 1062.0295777118
697	20771690 7917 378520 528540 71.2 98.8 277 0.92921597999244 12.628110225509 872.94060951573 4678.2631748185
698	20779607 7696 378520 528540 71.2 98.8 277 -4 2.6 -55.562619963075 2155.2249567784
699	20787303 7793 378520 528540 71.2 98.8 277 0.973 11.058861608597 1201.2940636651 8008.7226471303
700	20795096 9000 378520 528540 71.2 98.8 277 -4 2.4 0.27487586824226 354.92675422287
701	20804096 7822 378520 528540 71.2 98.8 277 0.973 7.4883681223829 627.93286971529 1988.711802053
702	20811918 8773 378520 528540 71.2 98.8 277 5.7492308273155 14.479826517269 2970.0261271446 33039.636501567
703	20820691 8779 378520 528540 71.2 98.8 277 5.810115943421 14.43621283114 2960.5455948945 33610.93528312
704	20829470 8786 378520 528540 71.2 98.8 277 5.7785636842321 12.549483015589 3042.1528899181 34407.27655233
705	20838256 8780 378520 528540 71.2 98.8 277 5.7489067271719 13.894275733018 2882.6664320922 31279.04867805
707	20847036 8634 378520 528540 71.2 98.8 277 -4 2.6 -44.505983518787 1189.8771771387
708	20855670 7782 378520 528540 71.2 98.8 277 0.973 9.9255122702605 897.99952140574 4653.0196622406
709	20863452 7663 378520 528540 71.2 98.8 277 -4 2.4 -38.851524192221 1921.0002564211
710	20871115 7813 378520 528540 71.2 98.8 277 0.973 10.001647735156 1173.1093308334 7037.2451893935
711	20878928 8701 378520 528540 71.2 98.8 277 -4 2.4 -6.2036302262211 675.29451246358
712	20887629 7864 378520 528540 71.2 98.8 277 0.973 8.2608447535386 743.39106549322 3026.4085524671
713	20895493 8235 378520 528540 71.2 98.8 277 -4 2.4 54.385132692429 1519.7053946095
714	20903728 7924 378520 528540 71.2 98.8 277 0.973 9.8058035701537 1170.8150282441 6838.0911322444
717	20911652 8783 378520 528540 71.2 98.8 277 6.0235608767495 13.668293559235 3548.4977019289 46367.920389772
718	20920435 7245 378520 528540 71.2 98.8 277 2799.95 2803.25 776233.61384868 2175230189.9752
719	20927680 8778 378520 528540 71.2 98.8 277 1424.6141620159 1729.692765659 436963.70963759 691399465.79427
720	20936458 8367 378520 528540 71.2 98.8 277 2368.6608407302 2625.3012488807 692981.96042501 1734824139.245
721	20944825 7228 378520 528540 71.2 98.8 277 1563.35 1636.75 444319.42170173 713017097.00806
722	20952053 7132 378520 528540 71.2 98.8 277 586.75 590.045973269 162668.79080329 95527827.85468
723	20959185 8782 378520 528540 71.2 98.8 277 750.08419984897 1044.5789045972 248014.36251016 224070949.27311
724	20967967 8858 378520 528540 71.2 98.8 277 -4 2.4 -0.79827740365634 511.89401352956
725	20976825 7893 378520 528540 71.2 98.8 277 0.973 9.4325758614824 763.99074266743 3155.0028479444
726	20984718 7293 378520 528540 71.2 98.8 277 2799.9641777056 2803.25 776373.64305797 2176014794.0778
727	20992011 8767 378520 528540 71.2 98.8 277 1241.3788735351 1518.2133789452 382175.71089715 529141566.91272
728	21000778 8780 378520 528540 71.2 98.8 277 5.9437914470424 13.549036655858 3071.2524863031 35604.99106404
729	21009558 8771 378520 528540 71.2 98.8 277 6.019716460621 12.584416578136 3184.6221361838 37543.274283898
730	21018329 8784 378520 528540 71.2 98.8 277 5.7478904807852 12.920499927887 2970.642725564 33259.925440885
731	21027113 7979 378520 528540 71.2 98.8 277 -4 2.6 -12.644629663347 1726.378326335
732	21035092 7866 378520 528540 71.2 98.8 277 0.973 10.345199492896 1109.8188432164 6845.2678880725
733	21042958 8654 378520 528540 71.2 98.8 277 -4 2.6 -0.63587996342918 827.24143127834
734	21051612 7936 378520 528540 71.2 98.8 277 0.973 9.5000669480158 797.93668606684 3648.2500735312
735	21059548 8171 378520 528540 71.2 98.8 277 -4 2.6 67.234440834411 1446.241307086
736	21067719 7991 378520 528540 71.2 98.8 277 0.973 9.4490773486017 1103.0618418501 6384.0756089777
737	21075710 8789 378520 528540 71.2 98.8 277 5.8503560174417 13.895353110417 2791.4230425635 29370.504346869
738	21084499 8047 378520 528540 71.2 98.8 277 -4 2.4 -6.3938450449532 1644.4931043302
739	21092546 7815 378520 528540 71.2 98.8 277 0.973 9.5146368892933 1090.4857470192 6203.0437869274
740	21100361 7272 378520 528540 71.2 98.8 277 1961.75 1965.0462642835 543537.72213375 1066546303.9465
741	21107633 8787 378520 528540 71.2 98.8 277 727.24646778142 983.75676498881 236097.7602963 202729936.75989
742	21116420 8783 378520 528540 71.2 98.8 277 5.7345183157353 12.359042639107 2583.3531582569 24989.645101443
743	21125203 8136 378520 528540 71.2 98.8 277 -4 1.5 -31.813209277985 1082.2964952915
744	21133339 8208 378520 528540 71.2 98.8 277 0.973 6.2767506631047 844.57399845013 3085.509854013
745	21141547 8272 378520 528540 71.2 98.8 277 372.07195182702 603.25 146795.48093883 79429742.925009
746	21149819 7478 378520 528540 71.2 98.8 277 1634.4305337582 1726.65 473383.56735347 809222044.3868
747	21157297 8776 378520 528540 71.2 98.8 277 5.7900603249468 14.212894289343 3130.1456478808 37562.640118579
748	21166073 8472 378520 528540 71.2 98.8 277 -4 1.5 -18.151958773803 757.21161073338
749	21174545 8107 378520 528540 71.2 98.8 277 0.973 6.7795180051912 810.6220305828 3044.6560163004
754	21182652 2517 485774 528540 90.9 98.8 80 336.15 437.15393669599 30882.26105963 11992810.216979
755	21185169 1904 485774 528540 90.9 98.8 80 2366.65 2366.65 189332 448082577.8
756	21187073 2502 486285 528540 91 98.8 79 12.888080240691 13.012497636083 1022.9316479823 13245.559138738
757	21189575 2590 486718 528540 91.1 98.8 78 -1.1792033391818 1.0859117877111 -1.1911802357063 28.846369177123
758	21192165 2168 486718 528540 91.1 98.8 78 0.973 5.3449039353268 179.32242815372 568.77031980938
759	21194333 170 525816 528540 98.3 98.8 6 29.1 31.535460938818 180.55865234704 5438.4642088969
760	21194503 144 525816 528540 98.3 98.8 6 2366.65 2366.65 14199.9 33606193.335
761	21194647 160 526487 528540 98.4 98.8 5 5.6986523470439 6.7386523470439 31.093261735219 194.03418506697
762	21194807 80 526922 528540 98.5 98.8 4 2.6 2.6 10.4 27.04
763	21194887 128 526922 528540 98.5 98.8 4 5.1506811020469 5.6857799392422 21.672446328872 117.58280459438
764	21195015 80 527469 528540 98.6 98.8 3 2777.3824836358 2778.85 8335.0824836358 23157868.105407
765	21195095 69 527469 528540 98.6 98.8 3 836.75 836.75 2510.25 2100451.6875
766	21195164 64 528021 528540 98.7 98.8 2 14.675163642475 14.762886471047 29.438050113522 433.30324489043
767	21195228 33 528540 528540 98.8 98.8 1 0.87722828571684 0.87722828571684 0.87722828571684 0.7695294652617
768	21195261 32 528540 528540 98.8 98.8 1 5.2404390658931 5.2404390658931 5.2404390658931 27.462201603338

