file 16788481 1592482258                                        
version 2
run Slotted1Persistant-6-20200618-14:10:26-18991
attr configname Slotted1Persistant
attr datetime 20200618-14:10:26
attr experiment Slotted1Persistant
attr inifile omnetpp.ini
attr iterationvars ""
attr iterationvarsf ""
attr measurement ""
attr network FloodingNetwork
attr processid 18991
attr repetition 6
attr replication #6
attr resultdir results
attr runnumber 6
attr seedset 6
param *.node[*].applType "\"Slotted1Persistant\""
param **.debug false
param **.coreDebug false
param *.playgroundSizeX 3000m
param *.playgroundSizeY 2500m
param *.playgroundSizeZ 50m
param *.annotations.draw true
param *.obstacles.debug true
param *.obstacles.obstacles "xmldoc(\"config.xml\", \"//AnalogueModel[@type='SimpleObstacleShadowing']/obstacles\")"
param *.world.useTorus false
param *.world.use2D false
param *.manager.updateInterval 0.1s
param *.manager.host "\"localhost\""
param *.manager.port 9999
param *.manager.moduleType "\"org.car2x.veins.nodes.Car\""
param *.manager.moduleName "\"node\""
param *.manager.autoShutdown true
param *.manager.margin 25
param *.manager.launchConfig "xmldoc(\"manhattan.launchd.xml\")"
param *.vehicleInserter.numVehicles 150
param *.connectionManager.sendDirect true
param *.connectionManager.maxInterfDist 100m
param *.connectionManager.drawMaxIntfDist false
param *.**.nic.mac1609_4.useServiceChannel true
param *.**.nic.mac1609_4.txPower 20mW
param *.**.nic.mac1609_4.bitrate 6Mbps
param *.**.nic.phy80211p.minPowerLevel -110dBm
param *.**.nic.phy80211p.useNoiseFloor true
param *.**.nic.phy80211p.noiseFloor -98dBm
param *.**.nic.phy80211p.decider "xmldoc(\"config.xml\")"
param *.**.nic.phy80211p.analogueModels "xmldoc(\"config.xml\")"
param *.**.nic.phy80211p.usePropagationDelay true
param *.**.nic.phy80211p.antenna "xmldoc(\"antenna.xml\", \"/root/Antenna[@id='monopole']\")"
param *.rsu.applType "\"FloodingRSU\""
param *.rsu.appl.headerLength 80bit
param *.rsu[*].appl.debug false
param *.rsu[*].appl.headerLength "88 bit"
param *.rsu[*].appl.dataLengthBits "512 bit"
param *.rsu[*].appl.sendBeacons false
param *.rsu[*].appl.dataOnSch true
param *.rsu[*].appl.sendData true
param *.rsu.nic.phy80211p.useNoiseFloor true
param *.rsu.nic.phy80211p.noiseFloor -98dBm
param *.rsu.nic.phy80211p.minPowerLevel -110dBm
param *.rsu.nic.phy80211p.analogueModels "xmldoc(\"config.xml\")"
param *.rsu.nic.phy80211p.decider "xmldoc(\"config.xml\")"
param *.rsu.nic.phy80211p.sensitivity -89dBm
param *.rsu.nic.mac1609_4.txPower 20mW
param *.rsu.mobility.x 1420
param *.rsu.mobility.y 1250
param *.rsu.mobility.z 1.895
param *.node[*].appl.debug false
param *.node[*].appl.headerLength "88 bit"
param *.node[*].appl.dataLengthBits "512 bit"
param *.node[*].appl.sendBeacons true
param *.node[*].appl.dataOnSch true
param *.node[*].appl.sendData true
param *.node[*].appl.beaconInterval 1s
param *.node[*].appl.beaconPriority 3
param *.node[*].appl.dataPriority 2
param *.node[*].appl.maxOffset 0.005s
param *.node.appl.dataOnSch false
param *.rsu.appl.dataOnSch false
param *.node[*].veinsmobilityType.debug false
param *.node[*].veinsmobility.x 0
param *.node[*].veinsmobility.y 0
param *.node[*].veinsmobility.z 1.895

vector 0 FloodingNetwork.node[0].veinsmobility posx ETV
vector 1 FloodingNetwork.node[0].veinsmobility posy ETV
vector 2 FloodingNetwork.node[1].veinsmobility posx ETV
vector 3 FloodingNetwork.node[1].veinsmobility posy ETV
vector 4 FloodingNetwork.node[2].veinsmobility posx ETV
vector 5 FloodingNetwork.node[2].veinsmobility posy ETV
vector 6 FloodingNetwork.node[3].veinsmobility posx ETV
vector 7 FloodingNetwork.node[3].veinsmobility posy ETV
vector 8 FloodingNetwork.node[4].veinsmobility posx ETV
vector 9 FloodingNetwork.node[4].veinsmobility posy ETV
vector 10 FloodingNetwork.node[5].veinsmobility posx ETV
vector 11 FloodingNetwork.node[5].veinsmobility posy ETV
vector 12 FloodingNetwork.node[6].veinsmobility posx ETV
vector 13 FloodingNetwork.node[6].veinsmobility posy ETV
vector 14 FloodingNetwork.node[7].veinsmobility posx ETV
vector 15 FloodingNetwork.node[7].veinsmobility posy ETV
vector 16 FloodingNetwork.node[8].veinsmobility posx ETV
vector 17 FloodingNetwork.node[8].veinsmobility posy ETV
vector 18 FloodingNetwork.node[9].veinsmobility posx ETV
vector 19 FloodingNetwork.node[9].veinsmobility posy ETV
vector 20 FloodingNetwork.node[10].veinsmobility posx ETV
vector 21 FloodingNetwork.node[10].veinsmobility posy ETV
vector 22 FloodingNetwork.node[11].veinsmobility posx ETV
vector 23 FloodingNetwork.node[11].veinsmobility posy ETV
vector 24 FloodingNetwork.node[12].veinsmobility posx ETV
vector 25 FloodingNetwork.node[12].veinsmobility posy ETV
vector 26 FloodingNetwork.node[13].veinsmobility posx ETV
vector 27 FloodingNetwork.node[13].veinsmobility posy ETV
vector 28 FloodingNetwork.node[14].veinsmobility posx ETV
vector 29 FloodingNetwork.node[14].veinsmobility posy ETV
vector 30 FloodingNetwork.node[15].veinsmobility posx ETV
vector 31 FloodingNetwork.node[15].veinsmobility posy ETV
vector 32 FloodingNetwork.node[16].veinsmobility posx ETV
vector 33 FloodingNetwork.node[16].veinsmobility posy ETV
vector 34 FloodingNetwork.node[17].veinsmobility posx ETV
vector 35 FloodingNetwork.node[17].veinsmobility posy ETV
vector 36 FloodingNetwork.node[18].veinsmobility posx ETV
vector 37 FloodingNetwork.node[18].veinsmobility posy ETV
vector 38 FloodingNetwork.node[19].veinsmobility posx ETV
vector 39 FloodingNetwork.node[19].veinsmobility posy ETV
vector 40 FloodingNetwork.node[20].veinsmobility posx ETV
vector 41 FloodingNetwork.node[20].veinsmobility posy ETV
vector 42 FloodingNetwork.node[21].veinsmobility posx ETV
vector 43 FloodingNetwork.node[21].veinsmobility posy ETV
vector 44 FloodingNetwork.node[22].veinsmobility posx ETV
vector 45 FloodingNetwork.node[22].veinsmobility posy ETV
vector 46 FloodingNetwork.node[23].veinsmobility posx ETV
vector 47 FloodingNetwork.node[23].veinsmobility posy ETV
vector 48 FloodingNetwork.node[24].veinsmobility posx ETV
vector 49 FloodingNetwork.node[24].veinsmobility posy ETV
vector 50 FloodingNetwork.node[25].veinsmobility posx ETV
vector 51 FloodingNetwork.node[25].veinsmobility posy ETV
vector 52 FloodingNetwork.node[26].veinsmobility posx ETV
vector 53 FloodingNetwork.node[26].veinsmobility posy ETV
vector 54 FloodingNetwork.node[27].veinsmobility posx ETV
vector 55 FloodingNetwork.node[27].veinsmobility posy ETV
vector 56 FloodingNetwork.node[28].veinsmobility posx ETV
vector 57 FloodingNetwork.node[28].veinsmobility posy ETV
vector 58 FloodingNetwork.node[29].veinsmobility posx ETV
vector 59 FloodingNetwork.node[29].veinsmobility posy ETV
vector 60 FloodingNetwork.node[30].veinsmobility posx ETV
vector 61 FloodingNetwork.node[30].veinsmobility posy ETV
vector 62 FloodingNetwork.node[31].veinsmobility posx ETV
vector 63 FloodingNetwork.node[31].veinsmobility posy ETV
vector 64 FloodingNetwork.node[32].veinsmobility posx ETV
vector 65 FloodingNetwork.node[32].veinsmobility posy ETV
vector 66 FloodingNetwork.node[33].veinsmobility posx ETV
vector 67 FloodingNetwork.node[33].veinsmobility posy ETV
vector 68 FloodingNetwork.node[34].veinsmobility posx ETV
vector 69 FloodingNetwork.node[34].veinsmobility posy ETV
vector 70 FloodingNetwork.node[35].veinsmobility posx ETV
vector 71 FloodingNetwork.node[35].veinsmobility posy ETV
vector 72 FloodingNetwork.node[36].veinsmobility posx ETV
vector 73 FloodingNetwork.node[36].veinsmobility posy ETV
vector 74 FloodingNetwork.node[37].veinsmobility posx ETV
vector 75 FloodingNetwork.node[37].veinsmobility posy ETV
vector 76 FloodingNetwork.node[38].veinsmobility posx ETV
vector 77 FloodingNetwork.node[38].veinsmobility posy ETV
vector 78 FloodingNetwork.node[39].veinsmobility posx ETV
vector 79 FloodingNetwork.node[39].veinsmobility posy ETV
vector 80 FloodingNetwork.node[40].veinsmobility posx ETV
vector 81 FloodingNetwork.node[40].veinsmobility posy ETV
vector 82 FloodingNetwork.node[41].veinsmobility posx ETV
vector 83 FloodingNetwork.node[41].veinsmobility posy ETV
vector 84 FloodingNetwork.node[42].veinsmobility posx ETV
vector 85 FloodingNetwork.node[42].veinsmobility posy ETV
vector 86 FloodingNetwork.node[43].veinsmobility posx ETV
vector 87 FloodingNetwork.node[43].veinsmobility posy ETV
vector 88 FloodingNetwork.node[44].veinsmobility posx ETV
vector 89 FloodingNetwork.node[44].veinsmobility posy ETV
vector 90 FloodingNetwork.node[45].veinsmobility posx ETV
vector 91 FloodingNetwork.node[45].veinsmobility posy ETV
vector 92 FloodingNetwork.node[46].veinsmobility posx ETV
vector 93 FloodingNetwork.node[46].veinsmobility posy ETV
vector 94 FloodingNetwork.node[47].veinsmobility posx ETV
vector 95 FloodingNetwork.node[47].veinsmobility posy ETV
vector 96 FloodingNetwork.node[48].veinsmobility posx ETV
vector 97 FloodingNetwork.node[48].veinsmobility posy ETV
vector 98 FloodingNetwork.node[49].veinsmobility posx ETV
vector 99 FloodingNetwork.node[49].veinsmobility posy ETV
vector 100 FloodingNetwork.node[50].veinsmobility posx ETV
vector 101 FloodingNetwork.node[50].veinsmobility posy ETV
vector 102 FloodingNetwork.node[51].veinsmobility posx ETV
vector 103 FloodingNetwork.node[51].veinsmobility posy ETV
vector 104 FloodingNetwork.node[52].veinsmobility posx ETV
vector 105 FloodingNetwork.node[52].veinsmobility posy ETV
vector 106 FloodingNetwork.node[53].veinsmobility posx ETV
vector 107 FloodingNetwork.node[53].veinsmobility posy ETV
vector 108 FloodingNetwork.node[54].veinsmobility posx ETV
vector 109 FloodingNetwork.node[54].veinsmobility posy ETV
vector 110 FloodingNetwork.node[55].veinsmobility posx ETV
vector 111 FloodingNetwork.node[55].veinsmobility posy ETV
vector 112 FloodingNetwork.node[56].veinsmobility posx ETV
vector 113 FloodingNetwork.node[56].veinsmobility posy ETV
vector 114 FloodingNetwork.node[57].veinsmobility posx ETV
vector 115 FloodingNetwork.node[57].veinsmobility posy ETV
vector 116 FloodingNetwork.node[58].veinsmobility posx ETV
vector 117 FloodingNetwork.node[58].veinsmobility posy ETV
vector 118 FloodingNetwork.node[59].veinsmobility posx ETV
vector 119 FloodingNetwork.node[59].veinsmobility posy ETV
vector 120 FloodingNetwork.node[60].veinsmobility posx ETV
vector 121 FloodingNetwork.node[60].veinsmobility posy ETV
vector 122 FloodingNetwork.node[61].veinsmobility posx ETV
vector 123 FloodingNetwork.node[61].veinsmobility posy ETV
vector 124 FloodingNetwork.node[62].veinsmobility posx ETV
vector 125 FloodingNetwork.node[62].veinsmobility posy ETV
vector 126 FloodingNetwork.node[63].veinsmobility posx ETV
vector 127 FloodingNetwork.node[63].veinsmobility posy ETV
vector 128 FloodingNetwork.node[64].veinsmobility posx ETV
vector 129 FloodingNetwork.node[64].veinsmobility posy ETV
vector 130 FloodingNetwork.node[65].veinsmobility posx ETV
vector 131 FloodingNetwork.node[65].veinsmobility posy ETV
vector 132 FloodingNetwork.node[66].veinsmobility posx ETV
vector 133 FloodingNetwork.node[66].veinsmobility posy ETV
vector 134 FloodingNetwork.node[67].veinsmobility posx ETV
vector 135 FloodingNetwork.node[67].veinsmobility posy ETV
vector 136 FloodingNetwork.node[68].veinsmobility posx ETV
vector 137 FloodingNetwork.node[68].veinsmobility posy ETV
vector 138 FloodingNetwork.node[69].veinsmobility posx ETV
vector 139 FloodingNetwork.node[69].veinsmobility posy ETV
vector 140 FloodingNetwork.node[70].veinsmobility posx ETV
vector 141 FloodingNetwork.node[70].veinsmobility posy ETV
vector 142 FloodingNetwork.node[71].veinsmobility posx ETV
vector 143 FloodingNetwork.node[71].veinsmobility posy ETV
vector 144 FloodingNetwork.node[72].veinsmobility posx ETV
vector 145 FloodingNetwork.node[72].veinsmobility posy ETV
vector 146 FloodingNetwork.node[73].veinsmobility posx ETV
vector 147 FloodingNetwork.node[73].veinsmobility posy ETV
vector 148 FloodingNetwork.node[74].veinsmobility posx ETV
vector 149 FloodingNetwork.node[74].veinsmobility posy ETV
vector 150 FloodingNetwork.node[75].veinsmobility posx ETV
vector 151 FloodingNetwork.node[75].veinsmobility posy ETV
vector 152 FloodingNetwork.node[76].veinsmobility posx ETV
vector 153 FloodingNetwork.node[76].veinsmobility posy ETV
vector 154 FloodingNetwork.node[77].veinsmobility posx ETV
vector 155 FloodingNetwork.node[77].veinsmobility posy ETV
vector 156 FloodingNetwork.node[78].veinsmobility posx ETV
vector 157 FloodingNetwork.node[78].veinsmobility posy ETV
vector 158 FloodingNetwork.node[79].veinsmobility posx ETV
vector 159 FloodingNetwork.node[79].veinsmobility posy ETV
vector 160 FloodingNetwork.node[80].veinsmobility posx ETV
vector 161 FloodingNetwork.node[80].veinsmobility posy ETV
vector 162 FloodingNetwork.node[81].veinsmobility posx ETV
vector 163 FloodingNetwork.node[81].veinsmobility posy ETV
vector 164 FloodingNetwork.node[82].veinsmobility posx ETV
vector 165 FloodingNetwork.node[82].veinsmobility posy ETV
vector 166 FloodingNetwork.node[83].veinsmobility posx ETV
vector 167 FloodingNetwork.node[83].veinsmobility posy ETV
vector 168 FloodingNetwork.node[84].veinsmobility posx ETV
vector 169 FloodingNetwork.node[84].veinsmobility posy ETV
vector 170 FloodingNetwork.node[85].veinsmobility posx ETV
vector 171 FloodingNetwork.node[85].veinsmobility posy ETV
vector 172 FloodingNetwork.node[86].veinsmobility posx ETV
vector 173 FloodingNetwork.node[86].veinsmobility posy ETV
vector 174 FloodingNetwork.node[87].veinsmobility posx ETV
vector 175 FloodingNetwork.node[87].veinsmobility posy ETV
vector 176 FloodingNetwork.node[88].veinsmobility posx ETV
vector 177 FloodingNetwork.node[88].veinsmobility posy ETV
vector 178 FloodingNetwork.node[89].veinsmobility posx ETV
vector 179 FloodingNetwork.node[89].veinsmobility posy ETV
vector 180 FloodingNetwork.node[90].veinsmobility posx ETV
vector 181 FloodingNetwork.node[90].veinsmobility posy ETV
vector 182 FloodingNetwork.node[91].veinsmobility posx ETV
vector 183 FloodingNetwork.node[91].veinsmobility posy ETV
vector 184 FloodingNetwork.node[92].veinsmobility posx ETV
vector 185 FloodingNetwork.node[92].veinsmobility posy ETV
vector 186 FloodingNetwork.node[93].veinsmobility posx ETV
vector 187 FloodingNetwork.node[93].veinsmobility posy ETV
vector 188 FloodingNetwork.node[94].veinsmobility posx ETV
vector 189 FloodingNetwork.node[94].veinsmobility posy ETV
vector 190 FloodingNetwork.node[95].veinsmobility posx ETV
vector 191 FloodingNetwork.node[95].veinsmobility posy ETV
vector 192 FloodingNetwork.node[96].veinsmobility posx ETV
vector 193 FloodingNetwork.node[96].veinsmobility posy ETV
vector 194 FloodingNetwork.node[97].veinsmobility posx ETV
vector 195 FloodingNetwork.node[97].veinsmobility posy ETV
vector 196 FloodingNetwork.node[98].veinsmobility posx ETV
vector 197 FloodingNetwork.node[98].veinsmobility posy ETV
vector 198 FloodingNetwork.node[99].veinsmobility posx ETV
vector 199 FloodingNetwork.node[99].veinsmobility posy ETV
vector 200 FloodingNetwork.node[100].veinsmobility posx ETV
vector 201 FloodingNetwork.node[100].veinsmobility posy ETV
vector 202 FloodingNetwork.node[101].veinsmobility posx ETV
vector 203 FloodingNetwork.node[101].veinsmobility posy ETV
vector 204 FloodingNetwork.node[102].veinsmobility posx ETV
vector 205 FloodingNetwork.node[102].veinsmobility posy ETV
vector 206 FloodingNetwork.node[103].veinsmobility posx ETV
vector 207 FloodingNetwork.node[103].veinsmobility posy ETV
vector 208 FloodingNetwork.node[104].veinsmobility posx ETV
vector 209 FloodingNetwork.node[104].veinsmobility posy ETV
vector 210 FloodingNetwork.node[105].veinsmobility posx ETV
vector 211 FloodingNetwork.node[105].veinsmobility posy ETV
vector 212 FloodingNetwork.node[106].veinsmobility posx ETV
vector 213 FloodingNetwork.node[106].veinsmobility posy ETV
vector 214 FloodingNetwork.node[107].veinsmobility posx ETV
vector 215 FloodingNetwork.node[107].veinsmobility posy ETV
vector 216 FloodingNetwork.node[108].veinsmobility posx ETV
vector 217 FloodingNetwork.node[108].veinsmobility posy ETV
vector 218 FloodingNetwork.node[109].veinsmobility posx ETV
vector 219 FloodingNetwork.node[109].veinsmobility posy ETV
vector 220 FloodingNetwork.node[110].veinsmobility posx ETV
vector 221 FloodingNetwork.node[110].veinsmobility posy ETV
vector 222 FloodingNetwork.node[111].veinsmobility posx ETV
vector 223 FloodingNetwork.node[111].veinsmobility posy ETV
vector 224 FloodingNetwork.node[112].veinsmobility posx ETV
vector 225 FloodingNetwork.node[112].veinsmobility posy ETV
vector 226 FloodingNetwork.node[113].veinsmobility posx ETV
vector 227 FloodingNetwork.node[113].veinsmobility posy ETV
vector 228 FloodingNetwork.node[114].veinsmobility posx ETV
vector 229 FloodingNetwork.node[114].veinsmobility posy ETV
vector 230 FloodingNetwork.node[115].veinsmobility posx ETV
vector 231 FloodingNetwork.node[115].veinsmobility posy ETV
vector 232 FloodingNetwork.node[116].veinsmobility posx ETV
vector 233 FloodingNetwork.node[116].veinsmobility posy ETV
vector 234 FloodingNetwork.node[117].veinsmobility posx ETV
vector 235 FloodingNetwork.node[117].veinsmobility posy ETV
vector 236 FloodingNetwork.node[118].veinsmobility posx ETV
vector 237 FloodingNetwork.node[118].veinsmobility posy ETV
vector 238 FloodingNetwork.node[119].veinsmobility posx ETV
vector 239 FloodingNetwork.node[119].veinsmobility posy ETV
vector 240 FloodingNetwork.node[120].veinsmobility posx ETV
vector 241 FloodingNetwork.node[120].veinsmobility posy ETV
vector 242 FloodingNetwork.node[121].veinsmobility posx ETV
vector 243 FloodingNetwork.node[121].veinsmobility posy ETV
vector 244 FloodingNetwork.node[122].veinsmobility posx ETV
vector 245 FloodingNetwork.node[122].veinsmobility posy ETV
vector 246 FloodingNetwork.node[123].veinsmobility posx ETV
vector 247 FloodingNetwork.node[123].veinsmobility posy ETV
vector 248 FloodingNetwork.node[124].veinsmobility posx ETV
vector 249 FloodingNetwork.node[124].veinsmobility posy ETV
vector 250 FloodingNetwork.node[0].veinsmobility speed ETV
vector 251 FloodingNetwork.node[1].veinsmobility speed ETV
vector 252 FloodingNetwork.node[2].veinsmobility speed ETV
vector 253 FloodingNetwork.node[3].veinsmobility speed ETV
vector 254 FloodingNetwork.node[4].veinsmobility speed ETV
vector 255 FloodingNetwork.node[5].veinsmobility speed ETV
vector 256 FloodingNetwork.node[6].veinsmobility speed ETV
vector 257 FloodingNetwork.node[7].veinsmobility speed ETV
vector 258 FloodingNetwork.node[8].veinsmobility speed ETV
vector 259 FloodingNetwork.node[9].veinsmobility speed ETV
vector 260 FloodingNetwork.node[10].veinsmobility speed ETV
vector 261 FloodingNetwork.node[11].veinsmobility speed ETV
vector 262 FloodingNetwork.node[12].veinsmobility speed ETV
vector 263 FloodingNetwork.node[13].veinsmobility speed ETV
vector 264 FloodingNetwork.node[14].veinsmobility speed ETV
vector 265 FloodingNetwork.node[15].veinsmobility speed ETV
vector 266 FloodingNetwork.node[16].veinsmobility speed ETV
vector 267 FloodingNetwork.node[17].veinsmobility speed ETV
vector 268 FloodingNetwork.node[18].veinsmobility speed ETV
vector 269 FloodingNetwork.node[19].veinsmobility speed ETV
vector 270 FloodingNetwork.node[20].veinsmobility speed ETV
vector 271 FloodingNetwork.node[21].veinsmobility speed ETV
vector 272 FloodingNetwork.node[22].veinsmobility speed ETV
vector 273 FloodingNetwork.node[23].veinsmobility speed ETV
vector 274 FloodingNetwork.node[24].veinsmobility speed ETV
vector 275 FloodingNetwork.node[25].veinsmobility speed ETV
vector 276 FloodingNetwork.node[26].veinsmobility speed ETV
vector 277 FloodingNetwork.node[27].veinsmobility speed ETV
vector 278 FloodingNetwork.node[28].veinsmobility speed ETV
vector 279 FloodingNetwork.node[29].veinsmobility speed ETV
vector 280 FloodingNetwork.node[30].veinsmobility speed ETV
vector 281 FloodingNetwork.node[31].veinsmobility speed ETV
vector 282 FloodingNetwork.node[32].veinsmobility speed ETV
vector 283 FloodingNetwork.node[33].veinsmobility speed ETV
vector 284 FloodingNetwork.node[34].veinsmobility speed ETV
vector 285 FloodingNetwork.node[35].veinsmobility speed ETV
vector 286 FloodingNetwork.node[36].veinsmobility speed ETV
vector 287 FloodingNetwork.node[37].veinsmobility speed ETV
vector 288 FloodingNetwork.node[38].veinsmobility speed ETV
vector 289 FloodingNetwork.node[39].veinsmobility speed ETV
vector 290 FloodingNetwork.node[40].veinsmobility speed ETV
vector 291 FloodingNetwork.node[41].veinsmobility speed ETV
vector 292 FloodingNetwork.node[42].veinsmobility speed ETV
vector 293 FloodingNetwork.node[43].veinsmobility speed ETV
vector 294 FloodingNetwork.node[44].veinsmobility speed ETV
vector 295 FloodingNetwork.node[45].veinsmobility speed ETV
vector 296 FloodingNetwork.node[46].veinsmobility speed ETV
vector 297 FloodingNetwork.node[47].veinsmobility speed ETV
vector 298 FloodingNetwork.node[48].veinsmobility speed ETV
vector 299 FloodingNetwork.node[49].veinsmobility speed ETV
vector 300 FloodingNetwork.node[50].veinsmobility speed ETV
vector 301 FloodingNetwork.node[51].veinsmobility speed ETV
vector 302 FloodingNetwork.node[52].veinsmobility speed ETV
vector 303 FloodingNetwork.node[53].veinsmobility speed ETV
vector 304 FloodingNetwork.node[54].veinsmobility speed ETV
vector 305 FloodingNetwork.node[55].veinsmobility speed ETV
vector 306 FloodingNetwork.node[56].veinsmobility speed ETV
vector 307 FloodingNetwork.node[57].veinsmobility speed ETV
vector 308 FloodingNetwork.node[58].veinsmobility speed ETV
vector 309 FloodingNetwork.node[59].veinsmobility speed ETV
vector 310 FloodingNetwork.node[60].veinsmobility speed ETV
vector 311 FloodingNetwork.node[61].veinsmobility speed ETV
vector 312 FloodingNetwork.node[62].veinsmobility speed ETV
vector 313 FloodingNetwork.node[63].veinsmobility speed ETV
vector 314 FloodingNetwork.node[64].veinsmobility speed ETV
vector 315 FloodingNetwork.node[65].veinsmobility speed ETV
vector 316 FloodingNetwork.node[66].veinsmobility speed ETV
vector 317 FloodingNetwork.node[67].veinsmobility speed ETV
vector 318 FloodingNetwork.node[68].veinsmobility speed ETV
vector 319 FloodingNetwork.node[69].veinsmobility speed ETV
vector 320 FloodingNetwork.node[70].veinsmobility speed ETV
vector 321 FloodingNetwork.node[71].veinsmobility speed ETV
vector 322 FloodingNetwork.node[72].veinsmobility speed ETV
vector 323 FloodingNetwork.node[73].veinsmobility speed ETV
vector 324 FloodingNetwork.node[74].veinsmobility speed ETV
vector 325 FloodingNetwork.node[75].veinsmobility speed ETV
vector 326 FloodingNetwork.node[76].veinsmobility speed ETV
vector 327 FloodingNetwork.node[77].veinsmobility speed ETV
vector 328 FloodingNetwork.node[78].veinsmobility speed ETV
vector 329 FloodingNetwork.node[79].veinsmobility speed ETV
vector 330 FloodingNetwork.node[80].veinsmobility speed ETV
vector 331 FloodingNetwork.node[81].veinsmobility speed ETV
vector 332 FloodingNetwork.node[82].veinsmobility speed ETV
vector 333 FloodingNetwork.node[83].veinsmobility speed ETV
vector 334 FloodingNetwork.node[84].veinsmobility speed ETV
vector 335 FloodingNetwork.node[85].veinsmobility speed ETV
vector 336 FloodingNetwork.node[86].veinsmobility speed ETV
vector 337 FloodingNetwork.node[87].veinsmobility speed ETV
vector 338 FloodingNetwork.node[88].veinsmobility speed ETV
vector 339 FloodingNetwork.node[89].veinsmobility speed ETV
vector 340 FloodingNetwork.node[90].veinsmobility speed ETV
vector 341 FloodingNetwork.node[91].veinsmobility speed ETV
vector 342 FloodingNetwork.node[92].veinsmobility speed ETV
vector 343 FloodingNetwork.node[93].veinsmobility speed ETV
vector 344 FloodingNetwork.node[94].veinsmobility speed ETV
vector 345 FloodingNetwork.node[95].veinsmobility speed ETV
vector 346 FloodingNetwork.node[96].veinsmobility speed ETV
vector 347 FloodingNetwork.node[97].veinsmobility speed ETV
vector 348 FloodingNetwork.node[98].veinsmobility speed ETV
vector 349 FloodingNetwork.node[99].veinsmobility speed ETV
vector 350 FloodingNetwork.node[100].veinsmobility speed ETV
vector 351 FloodingNetwork.node[101].veinsmobility speed ETV
vector 352 FloodingNetwork.node[102].veinsmobility speed ETV
vector 353 FloodingNetwork.node[103].veinsmobility speed ETV
vector 354 FloodingNetwork.node[104].veinsmobility speed ETV
vector 355 FloodingNetwork.node[105].veinsmobility speed ETV
vector 356 FloodingNetwork.node[106].veinsmobility speed ETV
vector 357 FloodingNetwork.node[107].veinsmobility speed ETV
vector 358 FloodingNetwork.node[108].veinsmobility speed ETV
vector 359 FloodingNetwork.node[109].veinsmobility speed ETV
vector 360 FloodingNetwork.node[110].veinsmobility speed ETV
vector 361 FloodingNetwork.node[111].veinsmobility speed ETV
vector 362 FloodingNetwork.node[112].veinsmobility speed ETV
vector 363 FloodingNetwork.node[113].veinsmobility speed ETV
vector 364 FloodingNetwork.node[114].veinsmobility speed ETV
vector 365 FloodingNetwork.node[115].veinsmobility speed ETV
vector 366 FloodingNetwork.node[116].veinsmobility speed ETV
vector 367 FloodingNetwork.node[117].veinsmobility speed ETV
vector 368 FloodingNetwork.node[118].veinsmobility speed ETV
vector 369 FloodingNetwork.node[119].veinsmobility speed ETV
vector 370 FloodingNetwork.node[120].veinsmobility speed ETV
vector 371 FloodingNetwork.node[121].veinsmobility speed ETV
vector 372 FloodingNetwork.node[122].veinsmobility speed ETV
vector 373 FloodingNetwork.node[123].veinsmobility speed ETV
vector 374 FloodingNetwork.node[124].veinsmobility speed ETV
vector 375 FloodingNetwork.node[0].veinsmobility acceleration ETV
vector 376 FloodingNetwork.node[0].veinsmobility co2emission ETV
vector 377 FloodingNetwork.node[1].veinsmobility acceleration ETV
vector 378 FloodingNetwork.node[1].veinsmobility co2emission ETV
vector 379 FloodingNetwork.node[2].veinsmobility acceleration ETV
vector 380 FloodingNetwork.node[2].veinsmobility co2emission ETV
vector 381 FloodingNetwork.node[3].veinsmobility acceleration ETV
vector 382 FloodingNetwork.node[3].veinsmobility co2emission ETV
vector 383 FloodingNetwork.node[4].veinsmobility acceleration ETV
vector 384 FloodingNetwork.node[4].veinsmobility co2emission ETV
vector 385 FloodingNetwork.node[5].veinsmobility acceleration ETV
vector 386 FloodingNetwork.node[5].veinsmobility co2emission ETV
vector 387 FloodingNetwork.node[6].veinsmobility acceleration ETV
vector 388 FloodingNetwork.node[6].veinsmobility co2emission ETV
vector 389 FloodingNetwork.node[7].veinsmobility acceleration ETV
vector 390 FloodingNetwork.node[7].veinsmobility co2emission ETV
vector 391 FloodingNetwork.node[8].veinsmobility acceleration ETV
vector 392 FloodingNetwork.node[8].veinsmobility co2emission ETV
vector 393 FloodingNetwork.node[9].veinsmobility acceleration ETV
vector 394 FloodingNetwork.node[9].veinsmobility co2emission ETV
vector 395 FloodingNetwork.node[10].veinsmobility acceleration ETV
vector 396 FloodingNetwork.node[10].veinsmobility co2emission ETV
vector 397 FloodingNetwork.node[11].veinsmobility acceleration ETV
vector 398 FloodingNetwork.node[11].veinsmobility co2emission ETV
vector 399 FloodingNetwork.node[12].veinsmobility acceleration ETV
vector 400 FloodingNetwork.node[12].veinsmobility co2emission ETV
vector 401 FloodingNetwork.node[13].veinsmobility acceleration ETV
vector 402 FloodingNetwork.node[13].veinsmobility co2emission ETV
vector 403 FloodingNetwork.node[14].veinsmobility acceleration ETV
vector 404 FloodingNetwork.node[14].veinsmobility co2emission ETV
vector 405 FloodingNetwork.node[15].veinsmobility acceleration ETV
vector 406 FloodingNetwork.node[15].veinsmobility co2emission ETV
vector 407 FloodingNetwork.node[16].veinsmobility acceleration ETV
vector 408 FloodingNetwork.node[16].veinsmobility co2emission ETV
vector 409 FloodingNetwork.node[17].veinsmobility acceleration ETV
vector 410 FloodingNetwork.node[17].veinsmobility co2emission ETV
vector 411 FloodingNetwork.node[18].veinsmobility acceleration ETV
vector 412 FloodingNetwork.node[18].veinsmobility co2emission ETV
vector 413 FloodingNetwork.node[19].veinsmobility acceleration ETV
vector 414 FloodingNetwork.node[19].veinsmobility co2emission ETV
vector 415 FloodingNetwork.node[20].veinsmobility acceleration ETV
vector 416 FloodingNetwork.node[20].veinsmobility co2emission ETV
vector 417 FloodingNetwork.node[21].veinsmobility acceleration ETV
vector 418 FloodingNetwork.node[21].veinsmobility co2emission ETV
vector 419 FloodingNetwork.node[22].veinsmobility acceleration ETV
vector 420 FloodingNetwork.node[22].veinsmobility co2emission ETV
vector 421 FloodingNetwork.node[23].veinsmobility acceleration ETV
vector 422 FloodingNetwork.node[23].veinsmobility co2emission ETV
vector 423 FloodingNetwork.node[24].veinsmobility acceleration ETV
vector 424 FloodingNetwork.node[24].veinsmobility co2emission ETV
vector 425 FloodingNetwork.node[25].veinsmobility acceleration ETV
vector 426 FloodingNetwork.node[25].veinsmobility co2emission ETV
vector 427 FloodingNetwork.node[26].veinsmobility acceleration ETV
vector 428 FloodingNetwork.node[26].veinsmobility co2emission ETV
vector 429 FloodingNetwork.node[27].veinsmobility acceleration ETV
vector 430 FloodingNetwork.node[27].veinsmobility co2emission ETV
vector 431 FloodingNetwork.node[28].veinsmobility acceleration ETV
vector 432 FloodingNetwork.node[28].veinsmobility co2emission ETV
vector 433 FloodingNetwork.node[29].veinsmobility acceleration ETV
vector 434 FloodingNetwork.node[29].veinsmobility co2emission ETV
vector 435 FloodingNetwork.node[30].veinsmobility acceleration ETV
vector 436 FloodingNetwork.node[30].veinsmobility co2emission ETV
vector 437 FloodingNetwork.node[31].veinsmobility acceleration ETV
vector 438 FloodingNetwork.node[31].veinsmobility co2emission ETV
vector 439 FloodingNetwork.node[32].veinsmobility acceleration ETV
vector 440 FloodingNetwork.node[32].veinsmobility co2emission ETV
vector 441 FloodingNetwork.node[33].veinsmobility acceleration ETV
vector 442 FloodingNetwork.node[33].veinsmobility co2emission ETV
vector 443 FloodingNetwork.node[34].veinsmobility acceleration ETV
vector 444 FloodingNetwork.node[34].veinsmobility co2emission ETV
vector 445 FloodingNetwork.node[35].veinsmobility acceleration ETV
vector 446 FloodingNetwork.node[35].veinsmobility co2emission ETV
vector 447 FloodingNetwork.node[36].veinsmobility acceleration ETV
vector 448 FloodingNetwork.node[36].veinsmobility co2emission ETV
vector 449 FloodingNetwork.node[37].veinsmobility acceleration ETV
vector 450 FloodingNetwork.node[37].veinsmobility co2emission ETV
vector 451 FloodingNetwork.node[38].veinsmobility acceleration ETV
vector 452 FloodingNetwork.node[38].veinsmobility co2emission ETV
vector 453 FloodingNetwork.node[39].veinsmobility acceleration ETV
vector 454 FloodingNetwork.node[39].veinsmobility co2emission ETV
vector 455 FloodingNetwork.node[40].veinsmobility acceleration ETV
vector 456 FloodingNetwork.node[40].veinsmobility co2emission ETV
vector 457 FloodingNetwork.node[41].veinsmobility acceleration ETV
vector 458 FloodingNetwork.node[41].veinsmobility co2emission ETV
vector 459 FloodingNetwork.node[42].veinsmobility acceleration ETV
vector 460 FloodingNetwork.node[42].veinsmobility co2emission ETV
vector 461 FloodingNetwork.node[43].veinsmobility acceleration ETV
vector 462 FloodingNetwork.node[43].veinsmobility co2emission ETV
vector 463 FloodingNetwork.node[44].veinsmobility acceleration ETV
vector 464 FloodingNetwork.node[44].veinsmobility co2emission ETV
vector 465 FloodingNetwork.node[45].veinsmobility acceleration ETV
vector 466 FloodingNetwork.node[45].veinsmobility co2emission ETV
vector 467 FloodingNetwork.node[46].veinsmobility acceleration ETV
vector 468 FloodingNetwork.node[46].veinsmobility co2emission ETV
vector 469 FloodingNetwork.node[47].veinsmobility acceleration ETV
vector 470 FloodingNetwork.node[47].veinsmobility co2emission ETV
vector 471 FloodingNetwork.node[48].veinsmobility acceleration ETV
vector 472 FloodingNetwork.node[48].veinsmobility co2emission ETV
vector 473 FloodingNetwork.node[49].veinsmobility acceleration ETV
vector 474 FloodingNetwork.node[49].veinsmobility co2emission ETV
vector 475 FloodingNetwork.node[50].veinsmobility acceleration ETV
vector 476 FloodingNetwork.node[50].veinsmobility co2emission ETV
vector 477 FloodingNetwork.node[51].veinsmobility acceleration ETV
vector 478 FloodingNetwork.node[51].veinsmobility co2emission ETV
vector 479 FloodingNetwork.node[52].veinsmobility acceleration ETV
vector 480 FloodingNetwork.node[52].veinsmobility co2emission ETV
vector 481 FloodingNetwork.node[53].veinsmobility acceleration ETV
vector 482 FloodingNetwork.node[53].veinsmobility co2emission ETV
vector 483 FloodingNetwork.node[54].veinsmobility acceleration ETV
vector 484 FloodingNetwork.node[54].veinsmobility co2emission ETV
vector 485 FloodingNetwork.node[55].veinsmobility acceleration ETV
vector 486 FloodingNetwork.node[55].veinsmobility co2emission ETV
vector 487 FloodingNetwork.node[56].veinsmobility acceleration ETV
vector 488 FloodingNetwork.node[56].veinsmobility co2emission ETV
vector 489 FloodingNetwork.node[57].veinsmobility acceleration ETV
vector 490 FloodingNetwork.node[57].veinsmobility co2emission ETV
vector 491 FloodingNetwork.node[58].veinsmobility acceleration ETV
vector 492 FloodingNetwork.node[58].veinsmobility co2emission ETV
vector 493 FloodingNetwork.node[59].veinsmobility acceleration ETV
vector 494 FloodingNetwork.node[59].veinsmobility co2emission ETV
vector 495 FloodingNetwork.node[60].veinsmobility acceleration ETV
vector 496 FloodingNetwork.node[60].veinsmobility co2emission ETV
vector 497 FloodingNetwork.node[61].veinsmobility acceleration ETV
vector 498 FloodingNetwork.node[61].veinsmobility co2emission ETV
vector 499 FloodingNetwork.node[62].veinsmobility acceleration ETV
vector 500 FloodingNetwork.node[62].veinsmobility co2emission ETV
vector 501 FloodingNetwork.node[63].veinsmobility acceleration ETV
vector 502 FloodingNetwork.node[63].veinsmobility co2emission ETV
vector 503 FloodingNetwork.node[64].veinsmobility acceleration ETV
vector 504 FloodingNetwork.node[64].veinsmobility co2emission ETV
vector 505 FloodingNetwork.node[65].veinsmobility acceleration ETV
vector 506 FloodingNetwork.node[65].veinsmobility co2emission ETV
vector 507 FloodingNetwork.node[66].veinsmobility acceleration ETV
vector 508 FloodingNetwork.node[66].veinsmobility co2emission ETV
vector 509 FloodingNetwork.node[67].veinsmobility acceleration ETV
vector 510 FloodingNetwork.node[67].veinsmobility co2emission ETV
vector 511 FloodingNetwork.node[68].veinsmobility acceleration ETV
vector 512 FloodingNetwork.node[68].veinsmobility co2emission ETV
vector 513 FloodingNetwork.node[69].veinsmobility acceleration ETV
vector 514 FloodingNetwork.node[69].veinsmobility co2emission ETV
vector 515 FloodingNetwork.node[70].veinsmobility acceleration ETV
vector 516 FloodingNetwork.node[70].veinsmobility co2emission ETV
vector 517 FloodingNetwork.node[71].veinsmobility acceleration ETV
vector 518 FloodingNetwork.node[71].veinsmobility co2emission ETV
vector 519 FloodingNetwork.node[72].veinsmobility acceleration ETV
vector 520 FloodingNetwork.node[72].veinsmobility co2emission ETV
vector 521 FloodingNetwork.node[73].veinsmobility acceleration ETV
vector 522 FloodingNetwork.node[73].veinsmobility co2emission ETV
vector 523 FloodingNetwork.node[74].veinsmobility acceleration ETV
vector 524 FloodingNetwork.node[74].veinsmobility co2emission ETV
vector 525 FloodingNetwork.node[75].veinsmobility acceleration ETV
vector 526 FloodingNetwork.node[75].veinsmobility co2emission ETV
vector 527 FloodingNetwork.node[76].veinsmobility acceleration ETV
vector 528 FloodingNetwork.node[76].veinsmobility co2emission ETV
vector 529 FloodingNetwork.node[77].veinsmobility acceleration ETV
vector 530 FloodingNetwork.node[77].veinsmobility co2emission ETV
vector 531 FloodingNetwork.node[78].veinsmobility acceleration ETV
vector 532 FloodingNetwork.node[78].veinsmobility co2emission ETV
vector 533 FloodingNetwork.node[79].veinsmobility acceleration ETV
vector 534 FloodingNetwork.node[79].veinsmobility co2emission ETV
vector 535 FloodingNetwork.node[80].veinsmobility acceleration ETV
vector 536 FloodingNetwork.node[80].veinsmobility co2emission ETV
vector 537 FloodingNetwork.node[81].veinsmobility acceleration ETV
vector 538 FloodingNetwork.node[81].veinsmobility co2emission ETV
vector 539 FloodingNetwork.node[82].veinsmobility acceleration ETV
vector 540 FloodingNetwork.node[82].veinsmobility co2emission ETV
vector 541 FloodingNetwork.node[83].veinsmobility acceleration ETV
vector 542 FloodingNetwork.node[83].veinsmobility co2emission ETV
vector 543 FloodingNetwork.node[84].veinsmobility acceleration ETV
vector 544 FloodingNetwork.node[84].veinsmobility co2emission ETV
vector 545 FloodingNetwork.node[85].veinsmobility acceleration ETV
vector 546 FloodingNetwork.node[85].veinsmobility co2emission ETV
vector 547 FloodingNetwork.node[86].veinsmobility acceleration ETV
vector 548 FloodingNetwork.node[86].veinsmobility co2emission ETV
vector 549 FloodingNetwork.node[87].veinsmobility acceleration ETV
vector 550 FloodingNetwork.node[87].veinsmobility co2emission ETV
vector 551 FloodingNetwork.node[88].veinsmobility acceleration ETV
vector 552 FloodingNetwork.node[88].veinsmobility co2emission ETV
vector 553 FloodingNetwork.node[89].veinsmobility acceleration ETV
vector 554 FloodingNetwork.node[89].veinsmobility co2emission ETV
vector 555 FloodingNetwork.node[90].veinsmobility acceleration ETV
vector 556 FloodingNetwork.node[90].veinsmobility co2emission ETV
vector 557 FloodingNetwork.node[91].veinsmobility acceleration ETV
vector 558 FloodingNetwork.node[91].veinsmobility co2emission ETV
vector 559 FloodingNetwork.node[92].veinsmobility acceleration ETV
vector 560 FloodingNetwork.node[92].veinsmobility co2emission ETV
vector 561 FloodingNetwork.node[93].veinsmobility acceleration ETV
vector 562 FloodingNetwork.node[93].veinsmobility co2emission ETV
vector 563 FloodingNetwork.node[94].veinsmobility acceleration ETV
vector 564 FloodingNetwork.node[94].veinsmobility co2emission ETV
vector 565 FloodingNetwork.node[95].veinsmobility acceleration ETV
vector 566 FloodingNetwork.node[95].veinsmobility co2emission ETV
vector 567 FloodingNetwork.node[96].veinsmobility acceleration ETV
vector 568 FloodingNetwork.node[96].veinsmobility co2emission ETV
vector 569 FloodingNetwork.node[97].veinsmobility acceleration ETV
vector 570 FloodingNetwork.node[97].veinsmobility co2emission ETV
vector 571 FloodingNetwork.node[98].veinsmobility acceleration ETV
vector 572 FloodingNetwork.node[98].veinsmobility co2emission ETV
vector 573 FloodingNetwork.node[99].veinsmobility acceleration ETV
vector 574 FloodingNetwork.node[99].veinsmobility co2emission ETV
vector 575 FloodingNetwork.node[100].veinsmobility acceleration ETV
vector 576 FloodingNetwork.node[100].veinsmobility co2emission ETV
vector 577 FloodingNetwork.node[101].veinsmobility acceleration ETV
vector 578 FloodingNetwork.node[101].veinsmobility co2emission ETV
vector 579 FloodingNetwork.node[102].veinsmobility acceleration ETV
vector 580 FloodingNetwork.node[102].veinsmobility co2emission ETV
vector 581 FloodingNetwork.node[103].veinsmobility acceleration ETV
vector 582 FloodingNetwork.node[103].veinsmobility co2emission ETV
vector 583 FloodingNetwork.node[104].veinsmobility acceleration ETV
vector 584 FloodingNetwork.node[104].veinsmobility co2emission ETV
vector 585 FloodingNetwork.node[105].veinsmobility acceleration ETV
vector 586 FloodingNetwork.node[105].veinsmobility co2emission ETV
vector 587 FloodingNetwork.node[106].veinsmobility acceleration ETV
vector 588 FloodingNetwork.node[106].veinsmobility co2emission ETV
vector 589 FloodingNetwork.node[107].veinsmobility acceleration ETV
vector 590 FloodingNetwork.node[107].veinsmobility co2emission ETV
vector 591 FloodingNetwork.node[108].veinsmobility acceleration ETV
vector 592 FloodingNetwork.node[108].veinsmobility co2emission ETV
vector 593 FloodingNetwork.node[109].veinsmobility acceleration ETV
vector 594 FloodingNetwork.node[109].veinsmobility co2emission ETV
vector 595 FloodingNetwork.node[110].veinsmobility acceleration ETV
vector 596 FloodingNetwork.node[110].veinsmobility co2emission ETV
vector 597 FloodingNetwork.node[111].veinsmobility acceleration ETV
vector 598 FloodingNetwork.node[111].veinsmobility co2emission ETV
vector 599 FloodingNetwork.node[112].veinsmobility acceleration ETV
vector 600 FloodingNetwork.node[112].veinsmobility co2emission ETV
vector 601 FloodingNetwork.node[113].veinsmobility acceleration ETV
vector 602 FloodingNetwork.node[113].veinsmobility co2emission ETV
vector 603 FloodingNetwork.node[114].veinsmobility acceleration ETV
vector 604 FloodingNetwork.node[114].veinsmobility co2emission ETV
vector 605 FloodingNetwork.node[115].veinsmobility acceleration ETV
vector 606 FloodingNetwork.node[115].veinsmobility co2emission ETV
vector 607 FloodingNetwork.node[116].veinsmobility acceleration ETV
vector 608 FloodingNetwork.node[116].veinsmobility co2emission ETV
vector 609 FloodingNetwork.node[117].veinsmobility acceleration ETV
vector 610 FloodingNetwork.node[117].veinsmobility co2emission ETV
vector 611 FloodingNetwork.node[118].veinsmobility acceleration ETV
vector 612 FloodingNetwork.node[118].veinsmobility co2emission ETV
vector 613 FloodingNetwork.node[119].veinsmobility acceleration ETV
vector 614 FloodingNetwork.node[119].veinsmobility co2emission ETV
vector 615 FloodingNetwork.node[120].veinsmobility acceleration ETV
vector 616 FloodingNetwork.node[120].veinsmobility co2emission ETV
vector 617 FloodingNetwork.node[121].veinsmobility acceleration ETV
vector 618 FloodingNetwork.node[121].veinsmobility co2emission ETV
vector 619 FloodingNetwork.node[122].veinsmobility acceleration ETV
vector 620 FloodingNetwork.node[122].veinsmobility co2emission ETV
vector 621 FloodingNetwork.node[123].veinsmobility acceleration ETV
vector 622 FloodingNetwork.node[123].veinsmobility co2emission ETV
vector 623 FloodingNetwork.node[124].veinsmobility acceleration ETV
vector 624 FloodingNetwork.node[124].veinsmobility co2emission ETV
vector 625 FloodingNetwork.node[125].veinsmobility posx ETV
vector 626 FloodingNetwork.node[125].veinsmobility posy ETV
vector 627 FloodingNetwork.node[126].veinsmobility posx ETV
vector 628 FloodingNetwork.node[126].veinsmobility posy ETV
vector 629 FloodingNetwork.node[127].veinsmobility posx ETV
vector 630 FloodingNetwork.node[127].veinsmobility posy ETV
vector 631 FloodingNetwork.node[128].veinsmobility posx ETV
vector 632 FloodingNetwork.node[128].veinsmobility posy ETV
vector 633 FloodingNetwork.node[129].veinsmobility posx ETV
vector 634 FloodingNetwork.node[129].veinsmobility posy ETV
vector 635 FloodingNetwork.node[130].veinsmobility posx ETV
vector 636 FloodingNetwork.node[130].veinsmobility posy ETV
vector 637 FloodingNetwork.node[131].veinsmobility posx ETV
vector 638 FloodingNetwork.node[131].veinsmobility posy ETV
vector 639 FloodingNetwork.node[132].veinsmobility posx ETV
vector 640 FloodingNetwork.node[132].veinsmobility posy ETV
vector 641 FloodingNetwork.node[133].veinsmobility posx ETV
vector 642 FloodingNetwork.node[133].veinsmobility posy ETV
vector 643 FloodingNetwork.node[134].veinsmobility posx ETV
vector 644 FloodingNetwork.node[134].veinsmobility posy ETV
vector 645 FloodingNetwork.node[135].veinsmobility posx ETV
vector 646 FloodingNetwork.node[135].veinsmobility posy ETV
vector 647 FloodingNetwork.node[136].veinsmobility posx ETV
vector 648 FloodingNetwork.node[136].veinsmobility posy ETV
vector 649 FloodingNetwork.node[137].veinsmobility posx ETV
vector 650 FloodingNetwork.node[137].veinsmobility posy ETV
vector 651 FloodingNetwork.node[138].veinsmobility posx ETV
vector 652 FloodingNetwork.node[138].veinsmobility posy ETV
vector 653 FloodingNetwork.node[139].veinsmobility posx ETV
vector 654 FloodingNetwork.node[139].veinsmobility posy ETV
vector 655 FloodingNetwork.node[140].veinsmobility posx ETV
vector 656 FloodingNetwork.node[140].veinsmobility posy ETV
vector 657 FloodingNetwork.node[141].veinsmobility posx ETV
vector 658 FloodingNetwork.node[141].veinsmobility posy ETV
vector 659 FloodingNetwork.node[142].veinsmobility posx ETV
vector 660 FloodingNetwork.node[142].veinsmobility posy ETV
vector 661 FloodingNetwork.node[143].veinsmobility posx ETV
vector 662 FloodingNetwork.node[143].veinsmobility posy ETV
vector 663 FloodingNetwork.node[144].veinsmobility posx ETV
vector 664 FloodingNetwork.node[144].veinsmobility posy ETV
vector 665 FloodingNetwork.node[125].veinsmobility speed ETV
vector 666 FloodingNetwork.node[126].veinsmobility speed ETV
vector 667 FloodingNetwork.node[127].veinsmobility speed ETV
vector 668 FloodingNetwork.node[128].veinsmobility speed ETV
vector 669 FloodingNetwork.node[129].veinsmobility speed ETV
vector 670 FloodingNetwork.node[130].veinsmobility speed ETV
vector 671 FloodingNetwork.node[131].veinsmobility speed ETV
vector 672 FloodingNetwork.node[132].veinsmobility speed ETV
vector 673 FloodingNetwork.node[133].veinsmobility speed ETV
vector 674 FloodingNetwork.node[134].veinsmobility speed ETV
vector 675 FloodingNetwork.node[135].veinsmobility speed ETV
vector 676 FloodingNetwork.node[136].veinsmobility speed ETV
vector 677 FloodingNetwork.node[137].veinsmobility speed ETV
vector 678 FloodingNetwork.node[138].veinsmobility speed ETV
vector 679 FloodingNetwork.node[139].veinsmobility speed ETV
vector 680 FloodingNetwork.node[125].veinsmobility acceleration ETV
vector 681 FloodingNetwork.node[125].veinsmobility co2emission ETV
vector 682 FloodingNetwork.node[126].veinsmobility acceleration ETV
vector 683 FloodingNetwork.node[126].veinsmobility co2emission ETV
vector 684 FloodingNetwork.node[127].veinsmobility acceleration ETV
vector 685 FloodingNetwork.node[127].veinsmobility co2emission ETV
vector 686 FloodingNetwork.node[128].veinsmobility acceleration ETV
vector 687 FloodingNetwork.node[128].veinsmobility co2emission ETV
vector 688 FloodingNetwork.node[129].veinsmobility acceleration ETV
vector 689 FloodingNetwork.node[129].veinsmobility co2emission ETV
vector 690 FloodingNetwork.node[130].veinsmobility acceleration ETV
vector 691 FloodingNetwork.node[130].veinsmobility co2emission ETV
vector 692 FloodingNetwork.node[131].veinsmobility acceleration ETV
vector 693 FloodingNetwork.node[131].veinsmobility co2emission ETV
vector 694 FloodingNetwork.node[132].veinsmobility acceleration ETV
vector 695 FloodingNetwork.node[132].veinsmobility co2emission ETV
vector 696 FloodingNetwork.node[133].veinsmobility acceleration ETV
vector 697 FloodingNetwork.node[133].veinsmobility co2emission ETV
vector 698 FloodingNetwork.node[134].veinsmobility acceleration ETV
vector 699 FloodingNetwork.node[134].veinsmobility co2emission ETV
vector 700 FloodingNetwork.node[135].veinsmobility acceleration ETV
vector 701 FloodingNetwork.node[135].veinsmobility co2emission ETV
vector 702 FloodingNetwork.node[136].veinsmobility acceleration ETV
vector 703 FloodingNetwork.node[136].veinsmobility co2emission ETV
vector 704 FloodingNetwork.node[137].veinsmobility acceleration ETV
vector 705 FloodingNetwork.node[137].veinsmobility co2emission ETV
vector 706 FloodingNetwork.node[138].veinsmobility acceleration ETV
vector 707 FloodingNetwork.node[138].veinsmobility co2emission ETV
vector 708 FloodingNetwork.node[139].veinsmobility acceleration ETV
vector 709 FloodingNetwork.node[139].veinsmobility co2emission ETV
vector 710 FloodingNetwork.node[140].veinsmobility speed ETV
vector 711 FloodingNetwork.node[141].veinsmobility speed ETV
vector 712 FloodingNetwork.node[142].veinsmobility speed ETV
vector 713 FloodingNetwork.node[143].veinsmobility speed ETV
vector 714 FloodingNetwork.node[144].veinsmobility speed ETV
vector 715 FloodingNetwork.node[140].veinsmobility acceleration ETV
vector 716 FloodingNetwork.node[140].veinsmobility co2emission ETV
vector 717 FloodingNetwork.node[141].veinsmobility acceleration ETV
vector 718 FloodingNetwork.node[141].veinsmobility co2emission ETV
vector 719 FloodingNetwork.node[142].veinsmobility acceleration ETV
vector 720 FloodingNetwork.node[142].veinsmobility co2emission ETV
vector 721 FloodingNetwork.node[143].veinsmobility acceleration ETV
vector 722 FloodingNetwork.node[143].veinsmobility co2emission ETV
vector 723 FloodingNetwork.node[144].veinsmobility acceleration ETV
vector 724 FloodingNetwork.node[144].veinsmobility co2emission ETV
vector 725 FloodingNetwork.node[145].veinsmobility posx ETV
vector 726 FloodingNetwork.node[145].veinsmobility posy ETV
vector 727 FloodingNetwork.node[146].veinsmobility posx ETV
vector 728 FloodingNetwork.node[146].veinsmobility posy ETV
vector 729 FloodingNetwork.node[147].veinsmobility posx ETV
vector 730 FloodingNetwork.node[147].veinsmobility posy ETV
vector 731 FloodingNetwork.node[145].veinsmobility speed ETV
vector 732 FloodingNetwork.node[146].veinsmobility speed ETV
vector 733 FloodingNetwork.node[147].veinsmobility speed ETV
vector 734 FloodingNetwork.node[148].veinsmobility posx ETV
vector 735 FloodingNetwork.node[148].veinsmobility posy ETV
vector 736 FloodingNetwork.node[145].veinsmobility acceleration ETV
vector 737 FloodingNetwork.node[145].veinsmobility co2emission ETV
vector 738 FloodingNetwork.node[146].veinsmobility acceleration ETV
vector 739 FloodingNetwork.node[146].veinsmobility co2emission ETV
vector 740 FloodingNetwork.node[147].veinsmobility acceleration ETV
vector 741 FloodingNetwork.node[147].veinsmobility co2emission ETV
vector 742 FloodingNetwork.node[148].veinsmobility speed ETV
vector 743 FloodingNetwork.node[148].veinsmobility acceleration ETV
vector 744 FloodingNetwork.node[148].veinsmobility co2emission ETV
vector 745 FloodingNetwork.node[149].veinsmobility posx ETV
vector 746 FloodingNetwork.node[149].veinsmobility posy ETV
vector 747 FloodingNetwork.node[149].veinsmobility speed ETV
vector 748 FloodingNetwork.node[149].veinsmobility acceleration ETV
vector 749 FloodingNetwork.node[149].veinsmobility co2emission ETV
0	49905 16567 37 378420 1.2 71.2 701 2236.75 2240.0457385848 1568264.0450305 3508491477.7146
1	66472 20486 37 378420 1.2 71.2 701 860.45 1620.5124229522 868263.57258578 1108749467.9713
2	86958 17242 37 378420 1.2 71.2 701 2069.5089742644 2239.9795937724 1557527.3276818 3461651045.5323
3	104200 19501 37 378420 1.2 71.2 701 1740.45 2363.35 1477675.1129656 3143395641.9526
4	123701 16462 37 378420 1.2 71.2 701 2236.75 2246.65 1568813.8528426 3510956497.6814
5	140163 20496 37 378420 1.2 71.2 701 774.74817343699 1455.3569542283 762511.68981302 859201558.55235
6	160659 16600 37 378420 1.2 71.2 701 1693.35 1703.25 1193166.9433364 2030885383.1341
7	177259 20501 37 378420 1.2 71.2 701 1640.8172494554 2355.198056478 1416019.2197733 2893815654.0573
8	197760 16476 37 378420 1.2 71.2 701 1686.75 1689.9950730492 1182694.925585 1995388989.0933
9	214236 20496 37 378420 1.2 71.2 701 460.45 1140.1621225898 560584.44301358 475132103.31544
10	234732 19217 37 378420 1.2 71.2 701 1985.45 2253.25 1537678.3702016 3377211057.6136
11	253949 18699 37 378420 1.2 71.2 701 1076.75 1486.65 908935.55766111 1197266572.3232
12	272648 19984 37 378420 1.2 71.2 701 1024.6946333698 1679.55 958419.67713047 1328392980.3261
13	292632 17616 37 378420 1.2 71.2 701 1883.35 2120.05 1414615.2604338 2862163804.444
14	310248 18437 37 378420 1.2 71.2 701 2530.030025515 2810.9 1929755.4859079 5315948662.3535
15	328685 19721 37 378420 1.2 71.2 701 1563.35 2123.5379049794 1338527.3907101 2581352950.3636
16	348406 18697 37 378420 1.2 71.2 701 36.75 304.55 66834.941628093 10497444.427189
17	367103 18409 37 378420 1.2 71.2 701 363.35 773.25 385517.05753599 230608356.22218
18	385512 17430 37 378420 1.2 71.2 701 586.75 740.27870370433 420695.92884657 253225530.50167
19	402942 20432 37 378420 1.2 71.2 701 460.45 1093.25 573867.73803656 498131569.92919
20	423374 18783 37 378420 1.2 71.2 701 50.028027439846 582.13399616877 134035.408463 46830691.09099
21	442157 18531 37 378420 1.2 71.2 701 1646.65 2029.55 1219932.4017513 2133240646.2237
22	460688 19211 37 378420 1.2 71.2 701 1710.45 1978.25 1344929.5314511 2584500636.2608
23	479899 18552 37 378420 1.2 71.2 701 836.75 1246.65 739095.5942889 798123594.31217
24	498451 20290 37 378420 1.2 71.2 701 868.35 1666.6748243126 840896.38816818 1054268635.5934
25	518741 16519 37 378420 1.2 71.2 701 54.768705765195 133.25 86911.866342621 11038980.984148
26	535260 20451 37 378420 1.2 71.2 701 850.91332867053 1689.9619007945 935900.99828964 1302771272.431
27	555711 17214 37 378420 1.2 71.2 701 1900.45 2040.05 1420777.6126945 2880243425.6649
28	572925 17291 37 378420 1.2 71.2 701 2799.9587728042 2803.25 1964770.2927734 5506879775.3696
29	590216 21198 37 378420 1.2 71.2 701 1095.5956986089 1869.55 1037428.7734029 1570368675.7779
30	611414 20344 37 378420 1.2 71.2 701 1860.5674747885 2249.95 1482659.894573 3145258271.0315
31	631758 17220 37 378420 1.2 71.2 701 2276.75 2446.65 1647314.5120684 3875214756.1056
32	648978 19849 37 378420 1.2 71.2 701 1424.9869873056 1698.2468624843 1063740.2625897 1619717072.9719
33	668827 17165 37 378420 1.2 71.2 701 770.79891820801 996.75 617894.63806881 551533261.22352
34	685992 18049 37 378420 1.2 71.2 701 2061.6177031184 2240.049061963 1557064.3409553 3459690651.4243
35	704041 20186 37 378420 1.2 71.2 701 940.45 1556.75 916766.21403905 1226983736.2639
36	724227 18749 37 378420 1.2 71.2 701 36.75 304.55 69784.967286278 11558668.526763
37	742976 18520 37 378420 1.2 71.2 701 843.35 1253.25 728820.56487883 776627942.62984
38	761496 19521 37 378420 1.2 71.2 701 2249.95 2810.9 1847754.0318152 4895187373.9109
39	781017 17997 37 378420 1.2 71.2 701 826.94876136409 1156.75 638081.08452154 588321404.6641
40	799014 19190 37 378420 1.2 71.2 701 1435.45 1703.25 1153297.6402716 1901502700.1418
41	818204 18735 37 378420 1.2 71.2 701 1876.75 2286.65 1473150.3186147 3114330583.3153
42	836939 17154 37 378420 1.2 71.2 701 2511.75 2521.65 1761585.8744977 4426802297.3868
43	854093 21186 37 378420 1.2 71.2 701 214.80842052561 886.84788102451 368231.33021787 222531796.24041
44	875279 17302 37 378420 1.2 71.2 701 1686.75 1690.0467249771 1182716.8132231 1995462874.7752
45	892581 21193 37 378420 1.2 71.2 701 220.45 988.90907732223 424150.87779128 290911609.97926
46	913774 18940 37 378420 1.2 71.2 701 1058.8887048316 1404.55 832147.95595905 992097792.8278
47	932714 18876 37 378420 1.2 71.2 701 2036.75 2436.75 1600413.7464508 3669584578.2938
48	951590 16796 37 378420 1.2 71.2 701 324.9606842437 328.25 229797.8370763 75331613.358821
49	968386 21183 37 378420 1.2 71.2 701 1578.414526614 2349.55 1375471.3567027 2733477295.0928
50	989569 17232 37 378420 1.2 71.2 701 1136.75 1146.65 797682.28923282 907703890.31751
51	1006801 21207 37 378420 1.2 71.2 701 1174.7757100531 1880.2822294623 1054328.5613814 1618350491.5067
52	1028008 18911 37 378420 1.2 71.2 701 861.75 1129.55 643900.32283999 595438036.074
53	1046919 18446 37 378420 1.2 71.2 701 203.35 613.25 269678.00479497 122065627.55116
54	1065365 20309 37 378420 1.2 71.2 701 875.01657895049 1594.9900049462 821395.54178137 1000130277.0667
55	1085674 16514 37 378420 1.2 71.2 701 209.95 349.55 157182.68455266 35925290.185478
56	1102188 18439 37 378420 1.2 71.2 701 1961.75 2229.55 1399042.3202081 2795552067.4233
57	1120627 19689 37 378420 1.2 71.2 701 283.35 860.15013309621 350789.59988623 201428176.53411
58	1140316 18811 37 378420 1.2 71.2 701 1916.0938640507 2229.55 1414213.0996324 2857151850.8397
59	1159127 18991 37 378420 1.2 71.2 701 1960.05 2356.75 1551975.5201366 3450565087.2489
60	1178118 18757 37 378420 1.2 71.2 701 36.75 531.22471075084 114054.65828507 36022705.626003
61	1196875 18362 37 378420 1.2 71.2 701 60.45 453.25 247546.38492264 98499995.410851
62	1215237 18619 37 378420 1.2 71.2 701 36.75 304.55 64531.630831561 9859427.9827512
63	1233856 18479 37 378420 1.2 71.2 701 203.35 613.25 267347.63016428 120014733.24929
64	1252335 19078 37 378420 1.2 71.2 701 999.01430219352 1404.55 818620.69244184 961225395.5903
65	1271413 18709 37 378420 1.2 71.2 701 1563.35 1963.35 1215216.7388645 2123923785.7584
66	1290122 18386 37 378420 1.2 71.2 701 885.45 1140.0428039176 771820.58482817 853152208.48353
67	1308508 19407 37 378420 1.2 71.2 701 213.25 739.72211260014 278574.02943402 131847617.5983
68	1327915 17298 37 378420 1.2 71.2 701 2511.75 2515.0478154356 1761044.9444955 4424079480.8748
69	1345213 21204 37 378420 1.2 71.2 701 780.45 1521.5497382175 807190.87319087 961319684.56243
70	1366417 17035 37 378420 1.2 71.2 701 1411.75 1421.65 990502.29695846 1399570056.7843
71	1383452 21192 37 378420 1.2 71.2 701 1014.7810325349 1638.4744902779 913960.86982239 1217099650.9483
72	1404644 19167 37 378420 1.2 71.2 701 2260.45 2515.0428432066 1721814.9425223 4233156141.5646
73	1423811 18339 37 378420 1.2 71.2 701 773.25 1163.35 670985.74711429 659716395.87542
74	1442150 19406 37 378420 1.2 71.2 701 60.45 635.88623580126 242147.0212721 95596085.097555
75	1461556 17991 37 378420 1.2 71.2 701 849.95 1166.65 699981.14128167 711467904.76028
76	1479547 19020 37 378420 1.2 71.2 701 1435.45 1703.25 1156786.5355472 1912855449.8991
77	1498567 18866 37 378420 1.2 71.2 701 2036.75 2446.65 1599012.9848738 3664637976.7866
78	1517433 19131 37 378420 1.2 71.2 701 2260.45 2684.1156481583 1753290.1805241 4390720401.3216
79	1536564 18680 37 378420 1.2 71.2 701 1086.65 1486.65 919413.17110868 1223487134.4496
80	1555244 16249 37 378420 1.2 71.2 701 36.75 46.65 26580.47392417 1012698.0037443
81	1571493 21205 37 378420 1.2 71.2 701 294.74530021441 1007.3346758188 439862.83171555 309243892.7479
82	1592698 17272 37 378420 1.2 71.2 701 1686.75 1690.0456101936 1182712.3587323 1995447835.2251
83	1609970 21181 37 378420 1.2 71.2 701 60.45 828.85588464438 311842.08458454 172974939.92404
84	1631151 19212 37 378420 1.2 71.2 701 2535.45 2803.25 1921751.5009042 5272790338.9326
85	1650363 18677 37 378420 1.2 71.2 701 1476.75 1886.65 1187456.6978106 2030396968.2491
86	1669040 18837 37 378420 1.2 71.2 701 60.45 481.65322836784 205730.50390541 65608849.705101
87	1687877 18377 37 378420 1.2 71.2 701 133.25 533.25 216585.26061377 84416549.828922
88	1706254 16274 37 378420 1.2 71.2 701 49.953471732295 53.25 37026.244502251 1956280.4440432
89	1722528 21196 37 378420 1.2 71.2 701 1465.1726189678 2189.55 1280832.9091725 2370991765.9973
90	1743724 19236 37 378420 1.2 71.2 701 1708.032408907 2229.55 1375490.9080963 2706964068.1137
91	1762960 18225 37 378420 1.2 71.2 701 443.35 843.35 450641.08314737 308131151.69698
92	1781185 18929 37 378420 1.2 71.2 701 586.75 1032.4058758508 490612.93891427 357656200.08243
93	1800114 18742 37 378420 1.2 71.2 701 700.45 1093.25 694894.87623188 700118334.70603
94	1818856 17170 37 378420 1.2 71.2 701 1693.35 1703.25 1193145.9777429 2030814316.4377
95	1836026 21182 37 378420 1.2 71.2 701 1339.3007245567 2035.2403100331 1200876.7323404 2088646399.5386
96	1857208 18957 37 378420 1.2 71.2 701 60.45 533.11886984572 218951.96002601 74826236.181665
97	1876165 18453 37 378420 1.2 71.2 701 926.65 1326.65 799130.04887695 929172385.26038
98	1894618 17273 37 378420 1.2 71.2 701 1136.75 1146.65 797678.16360934 907694407.93899
99	1911891 21193 37 378420 1.2 71.2 701 374.72463888937 1089.2183075368 496749.20441625 385550640.1196
100	1933084 17967 37 378420 1.2 71.2 701 1961.75 1965.048264533 1375489.5323139 2698961290.8704
101	1951051 21897 37 378420 1.2 71.2 701 860.45 1622.5382135773 869388.21381389 1111766185.4136
102	1972948 19879 37 378420 1.2 71.2 701 1198.3719312377 1679.55 1004288.6403001 1445326280.5309
103	1992827 19318 37 378420 1.2 71.2 701 1716.75 2116.75 1350777.2389016 2620962415.495
104	2012145 18187 37 378420 1.2 71.2 701 2524.95 2528.25 1771896.9469765 4478772246.8258
105	2030332 21902 37 378420 1.2 71.2 701 1686.507195821 2460.9 1455665.2324876 3057910882.1661
106	2052234 20992 37 378420 1.2 71.2 701 318.35 1122.0153438869 462308.02457856 350366651.6454
107	2073226 17622 37 378420 1.2 71.2 701 1969.95 2035.201613323 1386010.1799887 2740562319.3853
108	2090848 17320 37 378420 1.2 71.2 701 586.75 596.65 412134.91261747 242309098.41645
109	2108168 21893 37 378420 1.2 71.2 701 534.76815272717 1231.2799631108 601197.07677362 547169914.93815
110	2130061 17423 37 378420 1.2 71.2 701 861.75 871.65 604952.47053235 522070057.72964
111	2147484 21900 37 378420 1.2 71.2 701 214.81204224785 873.82699738867 364629.48372622 217894402.72168
112	2169384 20061 37 378420 1.2 71.2 701 324.98121367231 849.9561749791 338307.07142418 184096018.05379
113	2189445 18399 37 378420 1.2 71.2 701 849.95 1148.85 639333.46344877 588807638.95899
114	2207844 19576 37 378420 1.2 71.2 701 874.95648827996 1128.85 652896.24991896 611941841.13086
115	2227420 19290 37 378420 1.2 71.2 701 1886.65 2276.75 1467344.9491538 3088735337.8027
116	2246710 18061 37 378420 1.2 71.2 701 1974.95327395 1978.25 1386424.4568328 2742044535.9453
117	2264771 21886 37 378420 1.2 71.2 701 1677.1765927311 2428.85 1440335.4299018 2991990593.3868
118	2286657 20475 37 378420 1.2 71.2 701 336.15 1007.6678640226 455846.23927483 315405929.48294
119	2307132 18426 37 378420 1.2 71.2 701 1813.25 2053.25 1368571.359321 2679422980.4802
120	2325558 20585 37 378420 1.2 71.2 701 1136.75 1449.0458260566 867741.11419581 1081022495.0547
121	2346143 18202 37 378420 1.2 71.2 701 203.35 453.25 233977.34032331 86377153.480043
122	2364345 17408 37 378420 1.2 71.2 701 861.75 871.65 604930.8795527 522032576.54611
123	2381753 21876 37 378420 1.2 71.2 701 294.78801672957 983.46298823084 429401.46858258 293504303.27136
124	2403629 19877 37 378420 1.2 71.2 701 1986.15 2253.25 1538866.4259408 3382406918.5274
125	2423506 19491 37 378420 1.2 71.2 701 1716.75 2126.65 1355759.0939406 2640560667.5264
126	2442997 19870 37 378420 1.2 71.2 701 919.20763322674 1403.85 805281.21445428 931403629.99179
127	2462867 18892 37 378420 1.2 71.2 701 43.35 443.35 164352.20305432 56469930.986519
128	2481759 17934 37 378420 1.2 71.2 701 1693.35 1703.25 1193141.8533403 2030800142.7583
129	2499693 21886 37 378420 1.2 71.2 701 736.39952555161 1395.1869178181 759126.92095214 850541304.83562
130	2521579 18722 37 378420 1.2 71.2 701 2322.3436096682 2515.0495825741 1749972.8860217 4369833694.5342
131	2540301 20919 37 378420 1.2 71.2 701 381.15 1003.35 523440.04289586 418828862.88339
132	2561220 19808 37 378420 1.2 71.2 701 1161.15 1599.4348580666 980104.57800374 1375742460.742
133	2581028 19428 37 378420 1.2 71.2 701 1013.25 1413.25 837092.37284123 1017196354.8736
134	2600456 20249 37 378420 1.2 71.2 701 1945.210288744 2240.0402721165 1511465.789885 3265106927.8454
135	2620705 18492 37 378420 1.2 71.2 701 213.25 520.05 262353.98935122 109925444.0854
136	2639197 18620 37 378420 1.2 71.2 701 2080.9834746773 2253.25 1567113.2209981 3504394441.35
137	2657817 20903 37 378420 1.2 71.2 701 756.75 1315.1873595531 707567.95999162 740023723.06547
138	2678720 18555 37 378420 1.2 71.2 701 2672.384032696 2803.25 1957351.2986077 5465883427.6165
139	2697275 21115 37 378420 1.2 71.2 701 440.05 1068.85 498618.12308349 382640473.33644
140	2718390 17922 37 378420 1.2 71.2 701 1968.35 1978.25 1385902.2436512 2739983667.4207
141	2736312 21886 37 378420 1.2 71.2 701 1753.7474337623 2435.1670583085 1487296.0348731 3185332233.7227
142	2758198 19372 37 378420 1.2 71.2 701 36.75 303.85 65692.53839574 10215601.965219
143	2777570 19298 37 378420 1.2 71.2 701 683.35 1093.25 611135.17732133 551235650.72616
144	2796868 19626 37 378420 1.2 71.2 701 311.75 747.83092077042 294594.64149562 137372300.5435
145	2816494 19492 37 378420 1.2 71.2 701 1821.15 2213.25 1478918.1738795 3131268446.7154
146	2835986 20228 37 378420 1.2 71.2 701 2536.15 2803.25 1913292.2794299 5226937788.1359
147	2856214 18796 37 378420 1.2 71.2 701 676.75 1006.65 595664.72779847 519378144.25746
148	2875010 21539 37 378420 1.2 71.2 701 1960.2159384601 2796.65 1686300.2917667 4104485507.7922
149	2896549 16913 37 378420 1.2 71.2 701 116.75 188.85 84843.449753522 10361764.868784
150	2913462 20113 37 378420 1.2 71.2 701 2357.6126367285 2810.2 1877521.1570905 5043464024.0456
151	2933575 18749 37 378420 1.2 71.2 701 116.75 436.75 136731.05418316 34343417.915813
152	2952324 18085 37 378420 1.2 71.2 701 1149.9640079159 1153.25 808099.35171193 931562060.74347
153	2970409 21887 37 378420 1.2 71.2 701 568.75632201842 1308.85 657656.06991214 648702249.23125
154	2992296 18076 37 378420 1.2 71.2 701 318.35 470.05928207915 237459.56303297 81137043.505135
155	3010372 20860 37 378420 1.2 71.2 701 846.65 1395.1705961692 768649.43598436 867760796.70671
156	3031232 17916 37 378420 1.2 71.2 701 1686.75 1696.65 1183240.6643841 1997235211.1837
157	3049148 21885 37 378420 1.2 71.2 701 54.796006809708 740.4263068622 261085.97389631 127507572.19353
158	3071033 20520 37 378420 1.2 71.2 701 2295.8812760788 2790.0087939064 1837376.2935621 4834592098.0192
159	3091553 17918 37 378420 1.2 71.2 701 381.15 600.05 394238.78494057 224381941.55548
160	3109471 17877 37 378420 1.2 71.2 701 2793.35 2803.25 1964199.1989429 5503683622.6154
161	3127348 21899 37 378420 1.2 71.2 701 1722.4578981011 2355.1555914146 1445232.6422798 3005899818.0692
162	3149247 18293 37 378420 1.2 71.2 701 2249.956538465 2331.9000852669 1582101.6895998 3570818435.8026
163	3167540 21279 37 378420 1.2 71.2 701 606.65 1228.85 622963.22132543 579962319.65684
164	3188819 16719 37 378420 1.2 71.2 701 36.75 46.65 26659.199069492 1019401.0136179
165	3205538 21895 37 378420 1.2 71.2 701 1334.8267590771 1941.0770075059 1130682.7886264 1847474259.9367
166	3227433 16990 37 378420 1.2 71.2 701 36.75 40.038862528882 26061.542410881 969485.33975364
167	3244423 21901 37 378420 1.2 71.2 701 461.15 1163.7231125479 571048.52761093 494201870.78325
168	3266324 21908 37 378420 1.2 71.2 701 1718.5098323674 2235.2095523498 1417956.60872 2882741604.4029
169	3288232 15273 37 378420 1.2 71.2 701 36.75 46.65 28662.413623356 1184837.3618473
170	3303505 19552 37 378420 1.2 71.2 701 1986.15 2298.8948684174 1540762.4108168 3390568281.9702
171	3323057 19473 37 378420 1.2 71.2 701 613.25 1009.95 530559.31224245 416193741.39642
172	3342530 16910 37 378420 1.2 71.2 701 43.35 53.25 36484.338008611 1903812.5807362
173	3359440 21899 37 378420 1.2 71.2 701 467.33164702187 1155.2216011098 587820.9839569 523155943.38295
174	3381339 19774 37 378420 1.2 71.2 701 2101.6537379574 2503.85 1594743.1896554 3632798861.4157
175	3401113 19479 37 378420 1.2 71.2 701 1156.75 1556.75 970869.15433419 1361708688.1286
176	3420592 20156 37 378420 1.2 71.2 701 1143.35 1631.5040778171 908057.298004 1193931253.4709
177	3440748 18392 37 378420 1.2 71.2 701 289.95 515.20369396735 240829.60289232 86852393.63497
178	3459140 17699 37 378420 1.2 71.2 701 586.75 590.04210218338 411647.50705898 241731972.95965
179	3476839 21885 37 378420 1.2 71.2 701 29.8 763.55540359485 277273.26571768 141985907.78369
180	3498724 19617 37 378420 1.2 71.2 701 1699.9657966963 1953.85 1225680.7098297 2146601919.9578
181	3518341 19502 37 378420 1.2 71.2 701 1006.65 1396.75 872657.64457594 1101672799.6315
182	3537843 21890 37 378420 1.2 71.2 701 1426.7466913858 1960.1719696232 1218219.5975623 2133257839.2223
183	3559733 16001 37 378420 1.2 71.2 701 356.75 366.65 254601.62848586 92477524.465537
184	3575734 19487 37 378420 1.2 71.2 701 199.7985002818 578.85 243500.72741871 89427467.876706
185	3595221 19279 37 378420 1.2 71.2 701 683.35 1083.35 593242.82254779 518731644.0699
186	3614500 17198 37 378420 1.2 71.2 701 29.8 53.25 36588.831985879 1917029.6506409
187	3631698 21848 37 378420 1.2 71.2 701 213.35485306579 926.65 404577.8341383 264902736.46982
188	3653546 19815 37 378420 1.2 71.2 701 1986.15 2253.25 1542329.6981509 3397238074.944
189	3673361 19570 37 378420 1.2 71.2 701 1236.75 1646.65 1032248.9509715 1537657896.7139
190	3692931 19727 37 378420 1.2 71.2 701 2134.903476516 2503.85 1594306.2437724 3630740785.9317
191	3712658 19220 37 378420 1.2 71.2 701 123.35 523.35 198912.60752091 72848780.590726
192	3731878 17317 37 378420 1.2 71.2 701 29.8 53.25 36578.258121126 1915894.2942959
193	3749195 21847 37 378420 1.2 71.2 701 1002.5280802954 1726.65 961110.71793539 1350024095.2624
194	3771042 19563 37 378420 1.2 71.2 701 599.96057307948 853.85 459266.82527065 304624956.45053
195	3790605 19299 37 378420 1.2 71.2 701 2046.65 2436.75 1580815.9023944 3582058395.4653
196	3809904 19790 37 378420 1.2 71.2 701 2261.15 2671.6606805113 1746967.5645809 4358545667.2357
197	3829694 19271 37 378420 1.2 71.2 701 693.25 1093.25 607878.0204537 544318623.68351
198	3848965 17763 37 378420 1.2 71.2 701 43.35 218.80720839058 46895.516736346 4153916.7441988
199	3866728 20778 37 378420 1.2 71.2 701 686.65 1235.2323469605 653745.09618759 635039669.07802
200	3887506 18081 37 378420 1.2 71.2 701 1136.75 1140.0449493005 797186.95097974 906572713.08465
201	3905587 21900 37 378420 1.2 71.2 701 541.15 1297.4349974784 643972.02652501 624380312.29853
202	3927487 17594 37 378420 1.2 71.2 701 311.75 315.04550136897 218867.11851444 68335608.389211
203	3945081 21885 37 378420 1.2 71.2 701 941.15 1669.5375951095 915708.92936425 1227239744.34
204	3966966 19506 37 378420 1.2 71.2 701 61.15 468.48976047167 204147.17367904 64347142.536927
205	3986472 19254 37 378420 1.2 71.2 701 613.25 1013.25 551180.53981602 450549950.40888
206	4005726 17430 37 378420 1.2 71.2 701 586.75 596.65 412123.83149367 242295816.23877
207	4023156 21894 37 378420 1.2 71.2 701 54.84787403272 734.05944861718 257557.71396064 124098369.34075
208	4045050 19086 37 378420 1.2 71.2 701 2536.15 2790.0273770922 1929404.0626556 5313666640.6101
209	4064136 19960 37 378420 1.2 71.2 701 53.25 581.75933095545 168216.9876706 61724520.40185
210	4084096 19325 37 378420 1.2 71.2 701 324.99369982714 578.85 261927.43068587 101417255.84895
211	4103421 19479 37 378420 1.2 71.2 701 2046.65 2436.75 1602110.6475322 3676858003.6118
212	4122900 21454 37 378420 1.2 71.2 701 1393.5127512332 2228.85 1240806.0036144 2241897633.7737
213	4144354 16844 37 378420 1.2 71.2 701 360.05 440.05 302634.47560621 130892673.49545
214	4161198 20931 37 378420 1.2 71.2 701 49.967506100348 804.75304470816 251546.71414419 131244025.77338
215	4182129 17754 37 378420 1.2 71.2 701 2289.95 2428.85 1615432.9278951 3723366332.4572
216	4199883 19313 37 378420 1.2 71.2 701 49.969955798169 303.85 77560.627312976 13121700.073899
217	4219196 19283 37 378420 1.2 71.2 701 2046.65 2436.75 1571915.7957284 3542179531.4729
218	4238479 18685 37 378420 1.2 71.2 701 1411.75 1609.8952109057 1004255.3150538 1440144519.7866
219	4257164 20930 37 378420 1.2 71.2 701 1094.823687026 1653.25 984639.14874942 1409103049.6105
220	4278094 19086 37 378420 1.2 71.2 701 2249.9616158767 2503.85 1603098.7083567 3669285304.7058
221	4297180 20377 37 378420 1.2 71.2 701 1905.1352011293 2436.75 1575366.8480925 3561919118.232
222	4317557 17951 37 378420 1.2 71.2 701 2793.35 2803.25 1964222.8128749 5503815663.3429
223	4335508 21909 37 378420 1.2 71.2 701 1039.1869304633 1715.1708618607 983749.88982506 1409808753.0756
224	4357417 19838 37 378420 1.2 71.2 701 886.15 1397.4882647744 799962.98505532 920059895.01194
225	4377255 19227 37 378420 1.2 71.2 701 613.25 1013.25 567930.7099074 478133761.50176
226	4396482 21895 37 378420 1.2 71.2 701 648.06650210806 1403.85 719391.71972871 771299284.93514
227	4418377 16757 37 378420 1.2 71.2 701 2116.75 2120.05 1484499.9264278 3143710520.0589
228	4435134 18262 37 378420 1.2 71.2 701 2786.75 2810.2 1954269.18815 5448178516.0368
229	4453396 21850 37 378420 1.2 71.2 701 203.35 927.3199956939 392551.10047244 252244814.27999
230	4475246 19777 37 378420 1.2 71.2 701 1714.5 1978.25 1351849.2447087 2610589998.1089
231	4495023 19642 37 378420 1.2 71.2 701 996.75 1406.65 862382.21487011 1078338035.3658
232	4514665 18371 37 378420 1.2 71.2 701 1693.35 1778.6884328847 1195734.6848535 2039751234.5854
233	4533036 21291 37 378420 1.2 71.2 701 766.65 1315.2367128654 724481.37323824 771511511.15381
234	4554327 18462 37 378420 1.2 71.2 701 1961.75 1965.05 1375595.272004 2699376439.7972
235	4572789 21904 37 378420 1.2 71.2 701 33.65 637.46535269831 220235.49423986 93062740.926855
236	4594693 17957 37 378420 1.2 71.2 701 2793.35 2803.25 1964324.704194 5504385972.5099
237	4612650 21888 37 378420 1.2 71.2 701 1258.4856443103 1875.2870892155 1112622.7748623 1790354740.6584
238	4634538 17503 37 378420 1.2 71.2 701 311.75 321.65 219318.14805405 68621306.302403
239	4652041 21904 37 378420 1.2 71.2 701 1334.7218373141 1945.4708974302 1135176.4324536 1861993327.9129
240	4673945 19306 37 378420 1.2 71.2 701 625.2 995.43801373214 598851.56305453 515243560.92074
241	4693251 19814 37 378420 1.2 71.2 701 1966.65 2366.65 1534752.58246 3376281691.2201
242	4713065 19215 37 378420 1.2 71.2 701 36.75 404.16167676268 84009.839199884 19560736.251406
243	4732280 19839 37 378420 1.2 71.2 701 1515.2 1893.25 1249885.3039427 2239317395.4378
244	4752119 17243 37 378420 1.2 71.2 701 36.75 40.044331799114 26116.05527639 973637.71582998
245	4769362 21883 37 378420 1.2 71.2 701 795.2 1441.9801852012 784237.62617703 901670582.59776
246	4791245 17989 37 378420 1.2 71.2 701 1418.35 1428.25 1000441.6641777 1427798218.9381
247	4809234 21879 37 378420 1.2 71.2 701 1344.6105759412 1955.2988579191 1171932.6039051 1982932337.0827
248	4831113 18000 37 378420 1.2 71.2 701 1143.35 1153.25 807684.24187679 930608783.98164
249	4849113 21895 37 378420 1.2 71.2 701 1742.2204892935 2355.2948591764 1449729.5569328 3022074055.7494
250	4871008 21888 165 378420 1.3 71.2 700 5.7299854476463 13.347888406711 7639.4116900251 87396.50201089
251	4892896 21896 165 378420 1.3 71.2 700 6.0032124703568 13.306913078018 7859.1163307864 92099.10888449
252	4914792 21905 165 378420 1.3 71.2 700 5.7550562139269 12.496150085424 7407.7243488507 81531.128534864
253	4936697 21916 165 378420 1.3 71.2 700 5.7390724858443 16.578638366642 7748.2621658157 91938.627925383
254	4958613 21899 165 378420 1.3 71.2 700 5.7402649138671 10.690785081519 6832.8432580901 68093.688208511
255	4980512 21907 165 378420 1.3 71.2 700 5.7544300799719 14.591694988909 8628.1964132853 111714.69083143
256	5002419 21891 165 378420 1.3 71.2 700 5.840288308127 14.241790278125 8778.0806396092 114422.82380032
257	5024310 21903 165 378420 1.3 71.2 700 5.6819128046681 15.531820219441 8241.9203783017 103894.4055409
258	5046213 21879 165 378420 1.3 71.2 700 5.7435039279235 14.21150098108 8501.7339460108 108074.25777888
259	5068092 21909 165 378420 1.3 71.2 700 5.7760102684639 14.085846516694 7717.4696370063 89617.104530014
260	5090001 21877 165 378420 1.3 71.2 700 5.8022674045527 16.69141934496 9063.0023994953 126256.41288105
261	5111878 21911 165 378420 1.3 71.2 700 5.8023804385588 14.954502772574 8517.025168012 108881.85445757
262	5133789 21867 165 378420 1.3 71.2 700 5.7529782689589 14.79572244651 9233.9277488858 126352.60172064
263	5155656 21884 165 378420 1.3 71.2 700 5.7354143316492 17.033252602543 9735.9148262847 144748.90730294
264	5177540 21866 165 378420 1.3 71.2 700 5.738969715361 15.194055226325 7776.1994915962 92321.116667275
265	5199406 21892 165 378420 1.3 71.2 700 5.8655065848728 12.27581997852 8023.8154067921 93783.334841539
266	5221298 21875 165 378420 1.3 71.2 700 5.762916438155 11.411674197815 7444.1914132744 80635.660013516
267	5243173 21869 165 378420 1.3 71.2 700 5.7361441278583 13.975740230761 7938.6400243158 94981.903517368
268	5265042 21871 165 378420 1.3 71.2 700 5.7403841961057 15.517545762946 8934.7715306815 120822.64611765
269	5286913 21879 165 378420 1.3 71.2 700 5.6865179242899 15.343088017713 8691.6740522219 114842.14494971
270	5308792 21888 165 378420 1.3 71.2 700 5.7795782535817 14.003352091188 8433.2503159245 106113.95260823
271	5330680 21899 165 378420 1.3 71.2 700 5.7927749474351 12.248866423646 7322.9715482476 79530.088529234
272	5352579 21902 165 378420 1.3 71.2 700 5.7634983160504 14.116161920033 7719.2814436817 90013.057537453
273	5374481 21881 165 378420 1.3 71.2 700 5.8471465793775 11.26874636723 7286.3360289467 77352.823686902
274	5396362 21857 165 378420 1.3 71.2 700 5.7324685331949 14.699879049243 7746.9370927859 91273.027799585
275	5418219 21891 165 378420 1.3 71.2 700 5.7240032096434 14.763173731504 7654.7931089927 89220.780573427
276	5440110 21861 165 378420 1.3 71.2 700 5.785040159972 13.515861644715 8268.7870855257 101497.75446308
277	5461971 21877 165 378420 1.3 71.2 700 5.7797906989091 13.259339564078 8541.1947899131 106870.2436612
278	5483848 21896 165 378420 1.3 71.2 700 5.7814534460814 15.800049265384 8365.4025772189 107145.34615742
279	5505744 21858 165 378420 1.3 71.2 700 5.7819533821653 10.660897775956 6963.6973831504 70438.226513908
280	5527602 21881 165 378420 1.3 71.2 700 5.7492207278599 14.918177003839 8721.282562527 114599.21559189
281	5549483 21896 165 378420 1.3 71.2 700 5.7336216229826 13.25047613609 8129.2374955316 97975.484792766
282	5571379 21889 165 378420 1.3 71.2 700 5.8376019395636 12.584400044783 7886.4140113162 91570.095513965
283	5593268 21902 165 378420 1.3 71.2 700 5.7699800359732 12.779247561177 7795.2349896901 90009.426285964
284	5615170 21902 165 378420 1.3 71.2 700 5.7317500520225 12.710571613231 7452.4377328873 82793.978145732
285	5637072 21872 165 378420 1.3 71.2 700 5.7872943955995 10.876059982922 6832.8288081198 68359.041498682
286	5658944 21879 165 378420 1.3 71.2 700 5.769325795858 14.176370022204 8482.7920750411 107607.75120229
287	5680823 21897 165 378420 1.3 71.2 700 5.7467995580348 15.137640837084 8787.9798082238 116609.49952902
288	5702720 21884 165 378420 1.3 71.2 700 5.9523238467019 12.106496133347 7700.1456245378 86872.093809531
289	5724604 21896 165 378420 1.3 71.2 700 5.7796692537186 13.021095792253 8068.1635267227 96205.828891141
290	5746500 21896 165 378420 1.3 71.2 700 5.8026737441438 15.097959342796 7729.2437276945 90965.717107604
291	5768396 21906 165 378420 1.3 71.2 700 5.7770529610372 13.956170687173 7718.7853793541 89790.726982679
292	5790302 21893 165 378420 1.3 71.2 700 5.9306506256721 14.82637215861 8770.0480143623 115397.13985519
293	5812195 21862 165 378420 1.3 71.2 700 5.7420894580899 12.992955497167 8043.4663125859 95648.579023281
294	5834057 21885 165 378420 1.3 71.2 700 5.731967244113 12.054126049586 7284.6208426144 78457.519542282
295	5855942 21905 165 378420 1.3 71.2 700 5.7627231591279 16.542640416282 9041.0117989516 125451.52799799
296	5877847 21895 165 378420 1.3 71.2 700 5.8276441260779 13.397535730875 8231.6203699456 100439.20454715
297	5899742 21889 165 378420 1.3 71.2 700 5.7315620878851 13.501938670161 7556.0100617951 85914.574254737
298	5921631 21880 165 378420 1.3 71.2 700 5.7364774523948 14.355083419289 8559.5183679015 109678.3245544
299	5943511 21879 165 378420 1.3 71.2 700 5.7366183437391 16.502143234392 7748.7840373207 91932.948454987
300	5965390 21902 165 378420 1.3 71.2 700 5.8430590130238 13.537473870726 7658.8591899641 88051.291726346
301	5987292 21889 165 378420 1.3 71.2 700 5.7953492750865 14.597837482748 8644.8438023711 112169.40320398
302	6009181 21844 165 378420 1.3 71.2 700 5.7515759827652 16.201165258148 7791.2246589759 92778.977331886
303	6031025 21877 165 378420 1.3 71.2 700 5.770706200278 14.586277974343 9125.6577529792 123256.75770253
304	6052902 21872 165 378420 1.3 71.2 700 5.737474338722 13.453581443687 7562.1361240385 85949.384720049
305	6074774 21896 165 378420 1.3 71.2 700 5.7459959614449 12.231839991462 7185.7013506157 76597.554992835
306	6096670 21888 165 378420 1.3 71.2 700 5.7932410510371 13.330869229797 8181.9532307833 99140.947991412
307	6118558 21869 165 378420 1.3 71.2 700 5.8811313104067 14.524888297838 8425.6623768994 106671.78463065
308	6140427 21878 165 378420 1.3 71.2 700 5.8152666301733 13.918882464324 7558.1450549471 86033.178822457
309	6162305 21892 165 378420 1.3 71.2 700 5.7509141392532 15.166701844438 8945.5516714007 120298.48129184
310	6184197 21881 165 378420 1.3 71.2 700 5.7858369995748 13.104824133863 8016.9440737146 95194.291999903
311	6206078 21839 165 378420 1.3 71.2 700 5.7733542181727 14.024138726527 7478.6866070664 84399.592794926
312	6227917 21882 165 378420 1.3 71.2 700 5.7982455344915 15.628699672424 8721.4592856588 115605.52692707
313	6249799 21902 165 378420 1.3 71.2 700 5.7513387030992 15.642284834173 8680.5483073562 114582.70161652
[...]
548	16341117 2129 379044 418634 71.3 78.7 75 0.973 9.6660594769837 316.77177355846 1884.8929943213
549	16343246 2490 379044 418634 71.3 78.7 75 -1.2599541171826 1.2356703379098 1.0869108788855 29.53178794106
550	16345736 2130 379044 418634 71.3 78.7 75 0.973 5.7132159989806 175.4952008449 566.85899697803
551	16347866 2214 379044 418634 71.3 78.7 75 -4 2.4 -1.2381217493106 359.57218094898
552	16350080 2142 379044 418634 71.3 78.7 75 0.973 8.4404821842238 248.16654552461 1186.2288164759
553	16352222 2108 379044 418634 71.3 78.7 75 -4 2.4 -0.92037261503482 479.26445442547
554	16354330 2138 379044 418634 71.3 78.7 75 0.973 9.5945187707251 314.87272317568 1839.9577119282
555	16356468 2495 379044 418634 71.3 78.7 75 -1.2923839812074 1.1280380217545 0.2938906874042 26.187099525225
556	16358963 2140 379044 418634 71.3 78.7 75 0.973 4.8602969160434 159.26918550793 440.15116352116
557	16361103 2216 379044 418634 71.3 78.7 75 -4 2.4 -0.93904049490109 337.36741026119
558	16363319 2144 379044 418634 71.3 78.7 75 0.973 7.7721442129032 243.59511298887 1169.3514827987
559	16365463 2504 379044 418634 71.3 78.7 75 -1.2036229024641 1.184297831459 -0.2937121750228 25.186999211729
560	16367967 2138 379044 418634 71.3 78.7 75 0.973 5.3513819819246 165.42542176505 486.03068509468
561	16370105 2144 379044 418634 71.3 78.7 75 -4 2.4 -3.1709655486508 444.11628822673
562	16372249 2136 379044 418634 71.3 78.7 75 0.973 9.4132448329802 293.78499383401 1648.8705908877
563	16374385 2497 379044 418634 71.3 78.7 75 -1.2551714294124 1.1958848320507 0.51472944648005 25.508398441989
564	16376882 2122 379044 418634 71.3 78.7 75 0.973 5.728420169653 174.1145248563 556.3104913942
565	16379004 2496 379044 418634 71.3 78.7 75 -1.1238903313503 0.94702476745471 -0.030216873781761 21.298721763644
566	16381500 2144 379044 418634 71.3 78.7 75 0.973 4.5719800534071 160.49134375325 440.54999230701
567	16383644 2086 379044 418634 71.3 78.7 75 -4 2.4 -0.48630709504466 498.26175340665
568	16385730 2154 379044 418634 71.3 78.7 75 0.973 9.7117399304711 328.63016290164 2000.2084084312
569	16387884 2100 379044 418634 71.3 78.7 75 -4 2.4 -24.306444053144 434.56320176847
570	16389984 2128 379044 418634 71.3 78.7 75 0.973 7.976953532297 248.22301714223 1172.3527174926
571	16392112 2414 379044 418634 71.3 78.7 75 -4 1.1463314810861 -23.419366618202 116.88576589902
572	16394526 2093 379044 418634 71.3 78.7 75 0.973 5.5682012810739 162.43769353323 488.40795376426
573	16396619 2168 379044 418634 71.3 78.7 75 -4 2.4 -56.480188436981 339.43382305742
574	16398787 2097 379044 418634 71.3 78.7 75 0.973 5.9763316851664 164.66751963951 534.34059567666
575	16400884 2039 379044 418634 71.3 78.7 75 -4 2.4 1.1411571219917 537.03681289692
576	16402923 2151 379044 418634 71.3 78.7 75 0.973 9.7208553633891 352.48189609179 2240.2713416379
577	16405074 2174 379044 418634 71.3 78.7 75 -4 2.4 -0.15282371465112 402.60706204266
578	16407248 2143 379044 418634 71.3 78.7 75 0.973 8.4082143270154 276.05265250051 1437.9767910774
579	16409391 2455 379044 418634 71.3 78.7 75 -4 1.2081014227308 -8.8443825790385 54.986596022656
580	16411846 2111 379044 418634 71.3 78.7 75 0.973 5.690827379993 166.11213241458 494.45017196159
581	16413957 2150 379044 418634 71.3 78.7 75 -4 2.4 3.1355135235512 431.03676514055
582	16416107 2140 379044 418634 71.3 78.7 75 0.973 9.3096754284103 301.68834430962 1689.1029157969
583	16418247 2144 379044 418634 71.3 78.7 75 -4 2.4 6.7163020719613 402.00452803304
584	16420391 2163 379044 418634 71.3 78.7 75 0.973 8.3885873866335 293.71059710956 1577.0572296691
585	16422554 2503 379044 418634 71.3 78.7 75 -1.0449584393017 1.0939645223972 -0.30908469828777 20.044763410059
586	16425057 2100 379044 418634 71.3 78.7 75 0.973 4.7408775628501 149.93212618184 391.21991358591
587	16427157 2501 379044 418634 71.3 78.7 75 -1.0158757132385 2.1956460270938 7.4769032297607 34.256258297721
588	16429658 2162 379044 418634 71.3 78.7 75 0.973 9.3630663045192 207.71520338645 842.68479965402
589	16431820 2112 379044 418634 71.3 78.7 75 -4 2.4 -20.315644235224 441.56022901263
590	16433932 2134 379044 418634 71.3 78.7 75 0.973 7.9770610682876 260.30078814244 1269.9087016667
591	16436066 2038 379044 418634 71.3 78.7 75 -4 2.4 -3.4654767470014 549.12277365276
592	16438104 2139 379044 418634 71.3 78.7 75 0.973 10.126782740812 343.90679419778 2138.5932219614
593	16440243 2120 379044 418634 71.3 78.7 75 -4 2.4 -46.739727142038 451.51472608334
594	16442363 2086 379044 418634 71.3 78.7 75 0.973 7.3448574324782 220.68090783018 952.81909612678
595	16444449 2199 379044 418634 71.3 78.7 75 -4 2.4 9.3051965565071 412.75342472238
596	16446648 2163 379044 418634 71.3 78.7 75 0.973 9.6488794755308 299.28294954037 1681.758896837
597	16448811 2131 379044 418634 71.3 78.7 75 -4 2.4 0.18088995829229 408.74818633837
598	16450942 2159 379044 418634 71.3 78.7 75 0.973 8.5487203685222 281.73840814082 1493.8885681321
599	16453101 1942 379044 418634 71.3 78.7 75 -4 2.4 -18.770268680006 600.6304165452
600	16455043 2108 379044 418634 71.3 78.7 75 0.973 8.6853907011396 310.53460061489 1767.286254157
601	16457151 2219 379044 418634 71.3 78.7 75 -4 2.4 0.26864827134651 319.47242312381
602	16459370 2131 379044 418634 71.3 78.7 75 0.973 7.1487374746509 237.01319938771 1061.7958328868
603	16461501 2078 379044 418634 71.3 78.7 75 -4 2.4 2.8932574856478 538.85722367662
604	16463579 2147 379044 418634 71.3 78.7 75 0.973 10.253240367854 356.19191683469 2251.477432857
605	16465726 2501 379044 418634 71.3 78.7 75 -2.939969528939 1.1704676798778 -3.6048770197037 34.002779689978
606	16468227 2093 379044 418634 71.3 78.7 75 0.973 5.8961501381573 174.78495169741 578.34863264156
607	16470320 2498 379044 418634 71.3 78.7 75 -0.9185031998204 1.3062655254034 8.3537498330156 24.198570632568
608	16472818 2226 379044 418634 71.3 78.7 75 0.973 6.5350367638389 205.87234498561 763.80736813644
609	16475044 2172 379044 418634 71.3 78.7 75 -4 1.5 -10.362052417597 328.53025362016
610	16477216 2202 379044 418634 71.3 78.7 75 0.973 5.9272515616013 233.43746764915 875.44685564078
611	16479418 2314 379044 418634 71.3 78.7 75 -4 1.5 28.19532396748 182.62663167677
612	16481732 2297 379044 418634 71.3 78.7 75 0.973 5.3222605103595 252.56111312919 955.09453859889
613	16484029 2249 379044 418634 71.3 78.7 75 -4 1.5 40.851902420524 193.9246029677
614	16486278 2297 379044 418634 71.3 78.7 75 0.973 6.4346875534907 276.10900693004 1149.8578196779
615	16488575 2469 379044 418634 71.3 78.7 75 -4 1.108345239301 -14.165457540148 72.901601739453
616	16491044 2132 379044 418634 71.3 78.7 75 0.973 6.2442160323483 179.46434435029 618.0721637849
617	16493176 2497 379044 418634 71.3 78.7 75 -0.97224212230648 1.072395246051 0.48742978603695 19.527014847476
618	16495673 2144 379044 418634 71.3 78.7 75 0.973 5.6661599410656 177.05788953337 551.81413025402
619	16497817 2201 379044 418634 71.3 78.7 75 -4 1.5 -12.229130533492 324.57640480945
620	16500018 2210 379044 418634 71.3 78.7 75 0.973 6.1583949931274 227.48033037214 838.60693777011
621	16502228 2296 379044 418634 71.3 78.7 75 -4 1.5 37.658710589537 176.83809059511
622	16504524 2277 379044 418634 71.3 78.7 75 0.973 5.6885491115287 262.92716594037 1050.3727257471
623	16506801 2306 379044 418634 71.3 78.7 75 -4 1.5 48.791068431076 133.83998323279
624	16509107 2333 379044 418634 71.3 78.7 75 0.973 5.6326059697002 264.27732098711 1025.620567578
625	16511440 1968 379044 418634 71.3 78.7 75 1699.9585460135 1703.25 127708.22511089 217458612.44907
626	16513408 2379 379044 418634 71.3 78.7 75 1590.5973511887 1671.4863087442 122671.63701828 200687860.11732
627	16515787 1908 379044 418634 71.3 78.7 75 311.75 314.96938977894 23413.764258618 7309453.5857248
628	16517695 2373 379044 418634 71.3 78.7 75 1915.0764759695 1981.8587727529 145981.36582311 284166484.97105
629	16520068 2379 379044 418634 71.3 78.7 75 786.54934446943 884.85022122458 63183.878903754 53296289.666917
630	16522447 1907 379044 418634 71.3 78.7 75 360.05 363.35 27191.344268358 9858374.4941106
631	16524354 2380 379044 418634 71.3 78.7 75 1681.2429807527 1758.5197214144 128833.9726395 221343814.19073
632	16526734 1913 379044 418634 71.3 78.7 75 836.75 840.05 62798.539508887 52582171.616576
633	16528647 2378 379044 418634 71.3 78.7 75 1975.5758264722 2069.6212821104 151146.42204107 304664682.48343
634	16531025 1782 379044 418634 71.3 78.7 75 276.75 277.19351111292 20757.988775595 5745255.1441759
635	16532807 2379 379044 418634 71.3 78.7 75 660.55214189152 738.58218583407 52467.613200865 36743744.63411
636	16535186 1786 379044 418634 71.3 78.7 75 2046.65 2046.65 153498.75 314158216.6875
637	16536972 2374 379044 418634 71.3 78.7 75 1539.3416352887 1630.5152772587 118871.58614499 188459394.3891
638	16539346 1786 379044 418634 71.3 78.7 75 1649.95 1653.25 123940.95 204818258.2275
639	16541132 1958 379044 418634 71.3 78.7 75 2236.75 2239.960687386 167788.67960023 375373941.94711
640	16543090 2380 379044 418634 71.3 78.7 75 1577.0642787117 1656.4376001588 121462.89070669 196747130.97348
641	16545470 2374 379044 418634 71.3 78.7 75 1317.0244728729 1419.3689746676 102840.64843981 141088560.14515
642	16547844 1818 379044 418634 71.3 78.7 75 360.05 368.21231030762 27064.560279942 9766825.9983011
643	16549662 1938 379044 418634 71.3 78.7 75 1699.9651625986 1703.25 127715.24820932 217482523.69927
644	16551600 2379 379044 418634 71.3 78.7 75 686.84322735675 761.9068716657 54091.392499685 39048561.717851
645	16553979 2380 379044 418634 71.3 78.7 75 1421.0860563255 1518.8892650846 110178.45024022 161920337.42205
646	16556359 1801 379044 418634 71.3 78.7 75 449.95 451.33204287164 33751.626259552 15188968.052343
647	16558160 2376 379044 418634 71.3 78.7 75 219.62029034223 311.27067451777 20354.409721187 5583810.3016474
648	16560536 1816 379044 418634 71.3 78.7 75 1253.25 1254.5111164432 93995.927571232 117803127.30691
649	16562352 2377 379044 418634 71.3 78.7 75 1294.6785157095 1403.0584390697 101497.65787192 137439869.12641
650	16564729 1711 379044 418634 71.3 78.7 75 613.25 613.25 45993.75 28205667.1875
651	16566440 1960 379044 418634 71.3 78.7 75 1136.75 1140.0368662798 85293.254626011 96999262.069252
652	16568400 2375 379044 418634 71.3 78.7 75 995.69844398141 1070.7897004696 77554.899542499 80237588.470419
653	16570775 1923 379044 418634 71.3 78.7 75 324.97407519585 328.25 24581.79716466 8056933.9889998
654	16572698 2375 379044 418634 71.3 78.7 75 1551.6149822662 1630.4749695804 119085.23944512 189120496.38845
655	16575073 2384 379044 418634 71.3 78.7 75 1506.7825930985 1619.6698143861 117241.75894251 183356868.8524
656	16577457 1636 379044 418634 71.3 78.7 75 36.75 40.05 2911.35 113203.8675
657	16579093 2374 379044 418634 71.3 78.7 75 1639.9743094508 1719.2935710743 126037.48584643 211839524.42442
658	16581467 1924 379044 418634 71.3 78.7 75 289.95 293.25 21925.503057513 6409833.5879531
659	16583391 1959 379044 418634 71.3 78.7 75 1686.75 1690.0031045054 126539.31648997 213496047.84911
660	16585350 2379 379044 418634 71.3 78.7 75 767.28609631597 844.49490754896 60687.087929163 49146678.634907
661	16587729 2379 379044 418634 71.3 78.7 75 1468.2726903502 1568.68004964 113884.26691425 172993059.8081
662	16590108 1786 379044 418634 71.3 78.7 75 1876.75 1876.75 140756.25 264164292.1875
663	16591894 1951 379044 418634 71.3 78.7 75 2511.75 2514.9665424582 188410.71589182 473314695.67946
664	16593845 2373 379044 418634 71.3 78.7 75 849.96403709875 926.5392687405 66859.323259644 59641360.458802
665	16596218 2382 379044 418634 71.3 78.7 75 5.9604230043977 14.281221964415 822.51398701231 9539.7371825637
666	16598600 2379 379044 418634 71.3 78.7 75 6.0478500363493 13.390463568303 684.07272525159 6471.7412590911
667	16600979 2374 379044 418634 71.3 78.7 75 6.3785468450968 16.503783364793 1002.703127789 14238.89847198
668	16603353 2384 379044 418634 71.3 78.7 75 5.8699636408525 12.592840342596 788.52961509427 8646.9261492195
669	16605737 2381 379044 418634 71.3 78.7 75 5.7542578433515 16.140384553405 949.74297329244 13138.338255554
670	16608118 2378 379044 418634 71.3 78.7 75 10.498830690355 10.588092548284 790.85094432325 8339.3233733258
671	16610496 2376 379044 418634 71.3 78.7 75 12.274359730319 12.362676146528 924.01205692097 11384.025866594
672	16612872 2381 379044 418634 71.3 78.7 75 6.0718969822111 13.119026240973 809.68011460092 9133.098056138
673	16615253 2374 379044 418634 71.3 78.7 75 9.9505096144235 14.881716552108 1054.7183963033 14981.205478551
674	16617627 2382 379044 418634 71.3 78.7 75 5.9492723870312 12.052041868965 762.49549422464 8004.9161850042
675	16620009 2382 379044 418634 71.3 78.7 75 10.6521116553 13.548645266518 992.80047599115 13176.146541346
676	16622391 2360 379044 418634 71.3 78.7 75 6.0367100687998 14.837978110752 929.71207251862 12276.904656098
677	16624751 2380 379044 418634 71.3 78.7 75 6.4233769756215 16.243861744042 1090.2226105771 16467.971255507
678	16627131 2380 379044 418634 71.3 78.7 75 5.8034444732255 11.302556080565 760.57081863577 7905.3007394367
679	16629511 2379 379044 418634 71.3 78.7 75 5.9935608720905 15.167283120344 803.8411228784 9122.8778683528
680	16631890 2098 379044 418634 71.3 78.7 75 -4 2.6 -7.3466237218373 540.72223818372
681	16633988 2111 379044 418634 71.3 78.7 75 0.973 10.565690438621 321.64937152359 2099.9843651452
682	16636099 2278 379044 418634 71.3 78.7 75 -4 2.6 31.047303451138 349.5059269282
683	16638377 2185 379044 418634 71.3 78.7 75 0.973 10.001068156976 303.70219362254 1855.9999796121
684	16640562 2362 379044 418634 71.3 78.7 75 -0.76139619793043 2.6 103.75813392436 234.68098332938
685	16642924 2324 379044 418634 71.3 78.7 75 0.97018413535155 11.650352961711 440.61890121946 3277.0397692081
686	16645248 2176 379044 418634 71.3 78.7 75 -4 2.6 0.53087379096309 413.98945522575
687	16647424 2158 379044 418634 71.3 78.7 75 0.973 9.0286123689 273.0648035292 1501.3894237136
688	16649582 2074 379044 418634 71.3 78.7 75 -4 2.6 -70.032253242738 497.53608712544
689	16651656 2065 379044 418634 71.3 78.7 75 0.973 6.7967558536292 191.41862950043 757.86413816949
690	16653721 2507 379044 418634 71.3 78.7 75 -0.84902513783659 0.87125032753915 -0.059824097063394 13.185540647292
691	16656228 2128 379044 418634 71.3 78.7 75 0.973 3.953001672883 140.8991237567 321.61062755536
692	16658356 2512 379044 418634 71.3 78.7 75 -0.71464659364079 0.77426302320324 -0.71846002704463 7.3789106196177
693	16660868 2188 379044 418634 71.3 78.7 75 0.973 4.1863692875939 144.60369929317 328.51848658253
694	16663056 2193 379044 418634 71.3 78.7 75 -4 2.6 4.8640192725295 442.99428233646
695	16665249 2125 379044 418634 71.3 78.7 75 0.973 9.6847407595013 302.23104490332 1821.4565059533
696	16667374 2464 379044 418634 71.3 78.7 75 -0.86932082851185 2.58704518246 50.921633872005 120.3588999738
697	16669838 2279 379044 418634 71.3 78.7 75 0.973 10.723687853017 313.65507678146 2012.7329043496
698	16672117 2215 379044 418634 71.3 78.7 75 -4 2.6 -6.6754198763231 369.94483813627
699	16674332 2111 379044 418634 71.3 78.7 75 0.973 8.972432118615 245.34631686241 1250.7856322317
700	16676443 2476 379044 418634 71.3 78.7 75 -0.83685331504793 2.5884314736677 30.491570770263 73.55007245366
701	16678919 2228 379044 418634 71.3 78.7 75 0.973 9.7778813349129 243.55775837451 1265.763660625
702	16681147 2110 379044 418634 71.3 78.7 75 -4 2.6 -60.703623983584 423.99609323469
703	16683257 2062 379044 418634 71.3 78.7 75 0.973 6.9855458429006 183.86993314031 693.3091660118
704	16685319 2215 379044 418634 71.3 78.7 75 -4 0.83616122522159 -97.927237039031 390.55152160956
705	16687534 2041 379044 418634 71.3 78.7 75 0.973 5.5629335200791 144.57712700852 379.47556531993
706	16689575 2285 379044 418634 71.3 78.7 75 -4 2.4 -15.151693569775 297.5965702113
707	16691860 2095 379044 418634 71.3 78.7 75 0.973 7.5619022359313 216.00974353532 934.65935570454
708	16693955 2089 379044 418634 71.3 78.7 75 -4 2.4 0.67494777837705 534.68145123561
709	16696044 2138 379044 418634 71.3 78.7 75 0.973 10.487653658301 351.45656323267 2262.6097827499
710	16698182 2377 379044 418634 71.3 78.7 75 15.215282615466 15.304025334337 1144.1716062774 17455.104670405
711	16700559 2372 379044 418634 71.3 78.7 75 5.7494194477371 13.785340062218 810.11996680057 9264.6874036168
712	16702931 2379 379044 418634 71.3 78.7 75 5.9638231669364 13.032676911559 784.2908071032 8586.4614785821
713	16705310 2376 379044 418634 71.3 78.7 75 13.50814783713 13.638799621461 1017.6287613396 13807.686717039
714	16707686 2377 379044 418634 71.3 78.7 75 6.0133913859481 13.429630265403 778.2831413373 8417.0112382233
715	16710063 2506 379044 418634 71.3 78.7 75 -0.84337602563668 0.78746484459145 0.1068660848844 10.635231458642
716	16712569 2233 379044 418634 71.3 78.7 75 0.973 5.0807447950354 176.11613781436 509.81313645062
717	16714802 2109 379044 418634 71.3 78.7 75 -4 2.6 0.03855008707151 499.61961585385
718	16716911 2126 379044 418634 71.3 78.7 75 0.973 10.174856161226 309.45787743236 1941.891367957
719	16719037 2145 379044 418634 71.3 78.7 75 -4 2.4 -1.034822798521 417.14000110342
720	16721182 2130 379044 418634 71.3 78.7 75 0.973 9.147215840875 285.87388205602 1534.575220793
721	16723312 2496 379044 418634 71.3 78.7 75 -1.0484861349687 1.1426375090238 -0.38892682255247 21.14094251002
722	16725808 2130 379044 418634 71.3 78.7 75 0.973 5.757088714619 171.9952016695 534.00517337853
723	16727938 2156 379044 418634 71.3 78.7 75 -4 2.4 0.55489649953077 424.37802018952
724	16730094 2123 379044 418634 71.3 78.7 75 0.973 8.6614154016639 294.3072862009 1613.9071249247
725	16732217 2381 379044 418634 71.3 78.7 75 1524.1455603774 1614.0943097555 117769.70853946 184978495.70014
726	16734598 1786 379044 418634 71.3 78.7 75 1653.25 1653.25 123993.75 204992667.1875
727	16736384 2408 378420 418634 71.2 78.7 76 138.71892332445 231.8060421403 14080.141052386 2664915.3888297
728	16738792 1810 378420 418634 71.2 78.7 76 1253.25 1253.25 95247 119368302.75
729	16740602 2412 378420 418634 71.2 78.7 76 176.15086011634 261.8564238426 16643.625213566 3692657.1208249
730	16743014 1810 378420 418634 71.2 78.7 76 1166.65 1166.65 88665.4 103441488.91
731	16744824 2368 379044 418634 71.3 78.7 75 11.142491114582 15.541955587864 911.50590307849 11178.523035365
732	16747192 2410 378420 418634 71.2 78.7 76 12.34582546087 12.475181323689 943.24134266647 11706.744993293
733	16749602 2407 378420 418634 71.2 78.7 76 11.363147333178 11.493675405029 868.42421891248 9923.2926744536
734	16752009 2409 378420 418634 71.2 78.7 76 1502.4133853591 1608.1043090037 118201.02319072 183907936.93537
735	16754418 1810 378420 418634 71.2 78.7 76 1876.75 1880.05 142666 267810457.15
736	16756228 2373 378420 418634 71.2 78.7 76 -4 1.1985534111444 -35.337681369506 184.91275257638
737	16758601 2128 378420 418634 71.2 78.7 76 0.973 5.154806601334 160.27225461259 439.49496330815
738	16760729 2534 378420 418634 71.2 78.7 76 -1.07363146713 1.0049661141448 -0.33486881850287 25.581791660828
739	16763263 2144 378420 418634 71.2 78.7 76 0.973 4.903419451078 171.10103681983 509.23617249586
740	16765407 2531 378420 418634 71.2 78.7 76 -1.2857077782042 1.2514389231987 -0.68832305029035 24.298577722337
741	16767938 2105 378420 418634 71.2 78.7 76 0.973 5.2700867373158 156.65860507859 434.58342621195
742	16770043 2413 378420 418634 71.2 78.7 76 14.028292734389 14.151920904991 1070.958922773 15091.579155025
743	16772456 2528 378420 418634 71.2 78.7 76 -1.1397582130506 0.97634138423949 -0.47332064942456 18.274509041685
744	16774984 2189 378420 418634 71.2 78.7 76 0.973 5.3756304700339 177.59093653412 533.61200267133
745	16777173 2410 378420 418634 71.2 78.7 76 909.60896025611 1006.2246580842 72750.211340581 69701163.452745
746	16779583 1734 378420 418634 71.2 78.7 76 609.95 613.25 46481.6 28428353.47
747	16781317 2408 378420 418634 71.2 78.7 76 11.446337145767 13.166825762607 979.28429767762 12633.547618267
748	16783725 2521 378420 418634 71.2 78.7 76 -1.132147556328 1.4057097318757 17.239365296255 31.987635148732
749	16786246 2234 378420 418634 71.2 78.7 76 0.973 6.1141538027033 211.3600611818 783.38052791268

