file 23301208 1592482225                                        
version 2
run Slotted1Persistant-1-20200618-14:09:45-18991
attr configname Slotted1Persistant
attr datetime 20200618-14:09:45
attr experiment Slotted1Persistant
attr inifile omnetpp.ini
attr iterationvars ""
attr iterationvarsf ""
attr measurement ""
attr network FloodingNetwork
attr processid 18991
attr repetition 1
attr replication #1
attr resultdir results
attr runnumber 1
attr seedset 1
param *.node[*].applType "\"Slotted1Persistant\""
param **.debug false
param **.coreDebug false
param *.playgroundSizeX 3000m
param *.playgroundSizeY 2500m
param *.playgroundSizeZ 50m
param *.annotations.draw true
param *.obstacles.debug true
param *.obstacles.obstacles "xmldoc(\"config.xml\", \"//AnalogueModel[@type='SimpleObstacleShadowing']/obstacles\")"
param *.world.useTorus false
param *.world.use2D false
param *.manager.updateInterval 0.1s
param *.manager.host "\"localhost\""
param *.manager.port 9999
param *.manager.moduleType "\"org.car2x.veins.nodes.Car\""
param *.manager.moduleName "\"node\""
param *.manager.autoShutdown true
param *.manager.margin 25
param *.manager.launchConfig "xmldoc(\"manhattan.launchd.xml\")"
param *.vehicleInserter.numVehicles 150
param *.connectionManager.sendDirect true
param *.connectionManager.maxInterfDist 100m
param *.connectionManager.drawMaxIntfDist false
param *.**.nic.mac1609_4.useServiceChannel true
param *.**.nic.mac1609_4.txPower 20mW
param *.**.nic.mac1609_4.bitrate 6Mbps
param *.**.nic.phy80211p.minPowerLevel -110dBm
param *.**.nic.phy80211p.useNoiseFloor true
param *.**.nic.phy80211p.noiseFloor -98dBm
param *.**.nic.phy80211p.decider "xmldoc(\"config.xml\")"
param *.**.nic.phy80211p.analogueModels "xmldoc(\"config.xml\")"
param *.**.nic.phy80211p.usePropagationDelay true
param *.**.nic.phy80211p.antenna "xmldoc(\"antenna.xml\", \"/root/Antenna[@id='monopole']\")"
param *.rsu.applType "\"FloodingRSU\""
param *.rsu.appl.headerLength 80bit
param *.rsu[*].appl.debug false
param *.rsu[*].appl.headerLength "88 bit"
param *.rsu[*].appl.dataLengthBits "512 bit"
param *.rsu[*].appl.sendBeacons false
param *.rsu[*].appl.dataOnSch true
param *.rsu[*].appl.sendData true
param *.rsu.nic.phy80211p.useNoiseFloor true
param *.rsu.nic.phy80211p.noiseFloor -98dBm
param *.rsu.nic.phy80211p.minPowerLevel -110dBm
param *.rsu.nic.phy80211p.analogueModels "xmldoc(\"config.xml\")"
param *.rsu.nic.phy80211p.decider "xmldoc(\"config.xml\")"
param *.rsu.nic.phy80211p.sensitivity -89dBm
param *.rsu.nic.mac1609_4.txPower 20mW
param *.rsu.mobility.x 1420
param *.rsu.mobility.y 1250
param *.rsu.mobility.z 1.895
param *.node[*].appl.debug false
param *.node[*].appl.headerLength "88 bit"
param *.node[*].appl.dataLengthBits "512 bit"
param *.node[*].appl.sendBeacons true
param *.node[*].appl.dataOnSch true
param *.node[*].appl.sendData true
param *.node[*].appl.beaconInterval 1s
param *.node[*].appl.beaconPriority 3
param *.node[*].appl.dataPriority 2
param *.node[*].appl.maxOffset 0.005s
param *.node.appl.dataOnSch false
param *.rsu.appl.dataOnSch false
param *.node[*].veinsmobilityType.debug false
param *.node[*].veinsmobility.x 0
param *.node[*].veinsmobility.y 0
param *.node[*].veinsmobility.z 1.895

vector 0 FloodingNetwork.node[0].veinsmobility posx ETV
vector 1 FloodingNetwork.node[0].veinsmobility posy ETV
vector 2 FloodingNetwork.node[1].veinsmobility posx ETV
vector 3 FloodingNetwork.node[1].veinsmobility posy ETV
vector 4 FloodingNetwork.node[2].veinsmobility posx ETV
vector 5 FloodingNetwork.node[2].veinsmobility posy ETV
vector 6 FloodingNetwork.node[3].veinsmobility posx ETV
vector 7 FloodingNetwork.node[3].veinsmobility posy ETV
vector 8 FloodingNetwork.node[4].veinsmobility posx ETV
vector 9 FloodingNetwork.node[4].veinsmobility posy ETV
vector 10 FloodingNetwork.node[5].veinsmobility posx ETV
vector 11 FloodingNetwork.node[5].veinsmobility posy ETV
vector 12 FloodingNetwork.node[6].veinsmobility posx ETV
vector 13 FloodingNetwork.node[6].veinsmobility posy ETV
vector 14 FloodingNetwork.node[7].veinsmobility posx ETV
vector 15 FloodingNetwork.node[7].veinsmobility posy ETV
vector 16 FloodingNetwork.node[8].veinsmobility posx ETV
vector 17 FloodingNetwork.node[8].veinsmobility posy ETV
vector 18 FloodingNetwork.node[9].veinsmobility posx ETV
vector 19 FloodingNetwork.node[9].veinsmobility posy ETV
vector 20 FloodingNetwork.node[10].veinsmobility posx ETV
vector 21 FloodingNetwork.node[10].veinsmobility posy ETV
vector 22 FloodingNetwork.node[11].veinsmobility posx ETV
vector 23 FloodingNetwork.node[11].veinsmobility posy ETV
vector 24 FloodingNetwork.node[12].veinsmobility posx ETV
vector 25 FloodingNetwork.node[12].veinsmobility posy ETV
vector 26 FloodingNetwork.node[13].veinsmobility posx ETV
vector 27 FloodingNetwork.node[13].veinsmobility posy ETV
vector 28 FloodingNetwork.node[14].veinsmobility posx ETV
vector 29 FloodingNetwork.node[14].veinsmobility posy ETV
vector 30 FloodingNetwork.node[15].veinsmobility posx ETV
vector 31 FloodingNetwork.node[15].veinsmobility posy ETV
vector 32 FloodingNetwork.node[16].veinsmobility posx ETV
vector 33 FloodingNetwork.node[16].veinsmobility posy ETV
vector 34 FloodingNetwork.node[17].veinsmobility posx ETV
vector 35 FloodingNetwork.node[17].veinsmobility posy ETV
vector 36 FloodingNetwork.node[18].veinsmobility posx ETV
vector 37 FloodingNetwork.node[18].veinsmobility posy ETV
vector 38 FloodingNetwork.node[19].veinsmobility posx ETV
vector 39 FloodingNetwork.node[19].veinsmobility posy ETV
vector 40 FloodingNetwork.node[20].veinsmobility posx ETV
vector 41 FloodingNetwork.node[20].veinsmobility posy ETV
vector 42 FloodingNetwork.node[21].veinsmobility posx ETV
vector 43 FloodingNetwork.node[21].veinsmobility posy ETV
vector 44 FloodingNetwork.node[22].veinsmobility posx ETV
vector 45 FloodingNetwork.node[22].veinsmobility posy ETV
vector 46 FloodingNetwork.node[23].veinsmobility posx ETV
vector 47 FloodingNetwork.node[23].veinsmobility posy ETV
vector 48 FloodingNetwork.node[24].veinsmobility posx ETV
vector 49 FloodingNetwork.node[24].veinsmobility posy ETV
vector 50 FloodingNetwork.node[25].veinsmobility posx ETV
vector 51 FloodingNetwork.node[25].veinsmobility posy ETV
vector 52 FloodingNetwork.node[26].veinsmobility posx ETV
vector 53 FloodingNetwork.node[26].veinsmobility posy ETV
vector 54 FloodingNetwork.node[27].veinsmobility posx ETV
vector 55 FloodingNetwork.node[27].veinsmobility posy ETV
vector 56 FloodingNetwork.node[28].veinsmobility posx ETV
vector 57 FloodingNetwork.node[28].veinsmobility posy ETV
vector 58 FloodingNetwork.node[29].veinsmobility posx ETV
vector 59 FloodingNetwork.node[29].veinsmobility posy ETV
vector 60 FloodingNetwork.node[30].veinsmobility posx ETV
vector 61 FloodingNetwork.node[30].veinsmobility posy ETV
vector 62 FloodingNetwork.node[31].veinsmobility posx ETV
vector 63 FloodingNetwork.node[31].veinsmobility posy ETV
vector 64 FloodingNetwork.node[32].veinsmobility posx ETV
vector 65 FloodingNetwork.node[32].veinsmobility posy ETV
vector 66 FloodingNetwork.node[33].veinsmobility posx ETV
vector 67 FloodingNetwork.node[33].veinsmobility posy ETV
vector 68 FloodingNetwork.node[34].veinsmobility posx ETV
vector 69 FloodingNetwork.node[34].veinsmobility posy ETV
vector 70 FloodingNetwork.node[35].veinsmobility posx ETV
vector 71 FloodingNetwork.node[35].veinsmobility posy ETV
vector 72 FloodingNetwork.node[36].veinsmobility posx ETV
vector 73 FloodingNetwork.node[36].veinsmobility posy ETV
vector 74 FloodingNetwork.node[37].veinsmobility posx ETV
vector 75 FloodingNetwork.node[37].veinsmobility posy ETV
vector 76 FloodingNetwork.node[38].veinsmobility posx ETV
vector 77 FloodingNetwork.node[38].veinsmobility posy ETV
vector 78 FloodingNetwork.node[39].veinsmobility posx ETV
vector 79 FloodingNetwork.node[39].veinsmobility posy ETV
vector 80 FloodingNetwork.node[40].veinsmobility posx ETV
vector 81 FloodingNetwork.node[40].veinsmobility posy ETV
vector 82 FloodingNetwork.node[41].veinsmobility posx ETV
vector 83 FloodingNetwork.node[41].veinsmobility posy ETV
vector 84 FloodingNetwork.node[42].veinsmobility posx ETV
vector 85 FloodingNetwork.node[42].veinsmobility posy ETV
vector 86 FloodingNetwork.node[43].veinsmobility posx ETV
vector 87 FloodingNetwork.node[43].veinsmobility posy ETV
vector 88 FloodingNetwork.node[44].veinsmobility posx ETV
vector 89 FloodingNetwork.node[44].veinsmobility posy ETV
vector 90 FloodingNetwork.node[45].veinsmobility posx ETV
vector 91 FloodingNetwork.node[45].veinsmobility posy ETV
vector 92 FloodingNetwork.node[46].veinsmobility posx ETV
vector 93 FloodingNetwork.node[46].veinsmobility posy ETV
vector 94 FloodingNetwork.node[47].veinsmobility posx ETV
vector 95 FloodingNetwork.node[47].veinsmobility posy ETV
vector 96 FloodingNetwork.node[48].veinsmobility posx ETV
vector 97 FloodingNetwork.node[48].veinsmobility posy ETV
vector 98 FloodingNetwork.node[49].veinsmobility posx ETV
vector 99 FloodingNetwork.node[49].veinsmobility posy ETV
vector 100 FloodingNetwork.node[50].veinsmobility posx ETV
vector 101 FloodingNetwork.node[50].veinsmobility posy ETV
vector 102 FloodingNetwork.node[51].veinsmobility posx ETV
vector 103 FloodingNetwork.node[51].veinsmobility posy ETV
vector 104 FloodingNetwork.node[52].veinsmobility posx ETV
vector 105 FloodingNetwork.node[52].veinsmobility posy ETV
vector 106 FloodingNetwork.node[53].veinsmobility posx ETV
vector 107 FloodingNetwork.node[53].veinsmobility posy ETV
vector 108 FloodingNetwork.node[54].veinsmobility posx ETV
vector 109 FloodingNetwork.node[54].veinsmobility posy ETV
vector 110 FloodingNetwork.node[55].veinsmobility posx ETV
vector 111 FloodingNetwork.node[55].veinsmobility posy ETV
vector 112 FloodingNetwork.node[56].veinsmobility posx ETV
vector 113 FloodingNetwork.node[56].veinsmobility posy ETV
vector 114 FloodingNetwork.node[57].veinsmobility posx ETV
vector 115 FloodingNetwork.node[57].veinsmobility posy ETV
vector 116 FloodingNetwork.node[58].veinsmobility posx ETV
vector 117 FloodingNetwork.node[58].veinsmobility posy ETV
vector 118 FloodingNetwork.node[59].veinsmobility posx ETV
vector 119 FloodingNetwork.node[59].veinsmobility posy ETV
vector 120 FloodingNetwork.node[60].veinsmobility posx ETV
vector 121 FloodingNetwork.node[60].veinsmobility posy ETV
vector 122 FloodingNetwork.node[61].veinsmobility posx ETV
vector 123 FloodingNetwork.node[61].veinsmobility posy ETV
vector 124 FloodingNetwork.node[62].veinsmobility posx ETV
vector 125 FloodingNetwork.node[62].veinsmobility posy ETV
vector 126 FloodingNetwork.node[63].veinsmobility posx ETV
vector 127 FloodingNetwork.node[63].veinsmobility posy ETV
vector 128 FloodingNetwork.node[64].veinsmobility posx ETV
vector 129 FloodingNetwork.node[64].veinsmobility posy ETV
vector 130 FloodingNetwork.node[65].veinsmobility posx ETV
vector 131 FloodingNetwork.node[65].veinsmobility posy ETV
vector 132 FloodingNetwork.node[66].veinsmobility posx ETV
vector 133 FloodingNetwork.node[66].veinsmobility posy ETV
vector 134 FloodingNetwork.node[67].veinsmobility posx ETV
vector 135 FloodingNetwork.node[67].veinsmobility posy ETV
vector 136 FloodingNetwork.node[68].veinsmobility posx ETV
vector 137 FloodingNetwork.node[68].veinsmobility posy ETV
vector 138 FloodingNetwork.node[69].veinsmobility posx ETV
vector 139 FloodingNetwork.node[69].veinsmobility posy ETV
vector 140 FloodingNetwork.node[70].veinsmobility posx ETV
vector 141 FloodingNetwork.node[70].veinsmobility posy ETV
vector 142 FloodingNetwork.node[71].veinsmobility posx ETV
vector 143 FloodingNetwork.node[71].veinsmobility posy ETV
vector 144 FloodingNetwork.node[72].veinsmobility posx ETV
vector 145 FloodingNetwork.node[72].veinsmobility posy ETV
vector 146 FloodingNetwork.node[73].veinsmobility posx ETV
vector 147 FloodingNetwork.node[73].veinsmobility posy ETV
vector 148 FloodingNetwork.node[74].veinsmobility posx ETV
vector 149 FloodingNetwork.node[74].veinsmobility posy ETV
vector 150 FloodingNetwork.node[75].veinsmobility posx ETV
vector 151 FloodingNetwork.node[75].veinsmobility posy ETV
vector 152 FloodingNetwork.node[76].veinsmobility posx ETV
vector 153 FloodingNetwork.node[76].veinsmobility posy ETV
vector 154 FloodingNetwork.node[77].veinsmobility posx ETV
vector 155 FloodingNetwork.node[77].veinsmobility posy ETV
vector 156 FloodingNetwork.node[78].veinsmobility posx ETV
vector 157 FloodingNetwork.node[78].veinsmobility posy ETV
vector 158 FloodingNetwork.node[79].veinsmobility posx ETV
vector 159 FloodingNetwork.node[79].veinsmobility posy ETV
vector 160 FloodingNetwork.node[80].veinsmobility posx ETV
vector 161 FloodingNetwork.node[80].veinsmobility posy ETV
vector 162 FloodingNetwork.node[81].veinsmobility posx ETV
vector 163 FloodingNetwork.node[81].veinsmobility posy ETV
vector 164 FloodingNetwork.node[82].veinsmobility posx ETV
vector 165 FloodingNetwork.node[82].veinsmobility posy ETV
vector 166 FloodingNetwork.node[83].veinsmobility posx ETV
vector 167 FloodingNetwork.node[83].veinsmobility posy ETV
vector 168 FloodingNetwork.node[84].veinsmobility posx ETV
vector 169 FloodingNetwork.node[84].veinsmobility posy ETV
vector 170 FloodingNetwork.node[85].veinsmobility posx ETV
vector 171 FloodingNetwork.node[85].veinsmobility posy ETV
vector 172 FloodingNetwork.node[86].veinsmobility posx ETV
vector 173 FloodingNetwork.node[86].veinsmobility posy ETV
vector 174 FloodingNetwork.node[87].veinsmobility posx ETV
vector 175 FloodingNetwork.node[87].veinsmobility posy ETV
vector 176 FloodingNetwork.node[88].veinsmobility posx ETV
vector 177 FloodingNetwork.node[88].veinsmobility posy ETV
vector 178 FloodingNetwork.node[89].veinsmobility posx ETV
vector 179 FloodingNetwork.node[89].veinsmobility posy ETV
vector 180 FloodingNetwork.node[90].veinsmobility posx ETV
vector 181 FloodingNetwork.node[90].veinsmobility posy ETV
vector 182 FloodingNetwork.node[91].veinsmobility posx ETV
vector 183 FloodingNetwork.node[91].veinsmobility posy ETV
vector 184 FloodingNetwork.node[92].veinsmobility posx ETV
vector 185 FloodingNetwork.node[92].veinsmobility posy ETV
vector 186 FloodingNetwork.node[93].veinsmobility posx ETV
vector 187 FloodingNetwork.node[93].veinsmobility posy ETV
vector 188 FloodingNetwork.node[94].veinsmobility posx ETV
vector 189 FloodingNetwork.node[94].veinsmobility posy ETV
vector 190 FloodingNetwork.node[95].veinsmobility posx ETV
vector 191 FloodingNetwork.node[95].veinsmobility posy ETV
vector 192 FloodingNetwork.node[96].veinsmobility posx ETV
vector 193 FloodingNetwork.node[96].veinsmobility posy ETV
vector 194 FloodingNetwork.node[97].veinsmobility posx ETV
vector 195 FloodingNetwork.node[97].veinsmobility posy ETV
vector 196 FloodingNetwork.node[98].veinsmobility posx ETV
vector 197 FloodingNetwork.node[98].veinsmobility posy ETV
vector 198 FloodingNetwork.node[99].veinsmobility posx ETV
vector 199 FloodingNetwork.node[99].veinsmobility posy ETV
vector 200 FloodingNetwork.node[100].veinsmobility posx ETV
vector 201 FloodingNetwork.node[100].veinsmobility posy ETV
vector 202 FloodingNetwork.node[101].veinsmobility posx ETV
vector 203 FloodingNetwork.node[101].veinsmobility posy ETV
vector 204 FloodingNetwork.node[102].veinsmobility posx ETV
vector 205 FloodingNetwork.node[102].veinsmobility posy ETV
vector 206 FloodingNetwork.node[103].veinsmobility posx ETV
vector 207 FloodingNetwork.node[103].veinsmobility posy ETV
vector 208 FloodingNetwork.node[104].veinsmobility posx ETV
vector 209 FloodingNetwork.node[104].veinsmobility posy ETV
vector 210 FloodingNetwork.node[105].veinsmobility posx ETV
vector 211 FloodingNetwork.node[105].veinsmobility posy ETV
vector 212 FloodingNetwork.node[106].veinsmobility posx ETV
vector 213 FloodingNetwork.node[106].veinsmobility posy ETV
vector 214 FloodingNetwork.node[107].veinsmobility posx ETV
vector 215 FloodingNetwork.node[107].veinsmobility posy ETV
vector 216 FloodingNetwork.node[108].veinsmobility posx ETV
vector 217 FloodingNetwork.node[108].veinsmobility posy ETV
vector 218 FloodingNetwork.node[109].veinsmobility posx ETV
vector 219 FloodingNetwork.node[109].veinsmobility posy ETV
vector 220 FloodingNetwork.node[110].veinsmobility posx ETV
vector 221 FloodingNetwork.node[110].veinsmobility posy ETV
vector 222 FloodingNetwork.node[111].veinsmobility posx ETV
vector 223 FloodingNetwork.node[111].veinsmobility posy ETV
vector 224 FloodingNetwork.node[112].veinsmobility posx ETV
vector 225 FloodingNetwork.node[112].veinsmobility posy ETV
vector 226 FloodingNetwork.node[113].veinsmobility posx ETV
vector 227 FloodingNetwork.node[113].veinsmobility posy ETV
vector 228 FloodingNetwork.node[114].veinsmobility posx ETV
vector 229 FloodingNetwork.node[114].veinsmobility posy ETV
vector 230 FloodingNetwork.node[115].veinsmobility posx ETV
vector 231 FloodingNetwork.node[115].veinsmobility posy ETV
vector 232 FloodingNetwork.node[116].veinsmobility posx ETV
vector 233 FloodingNetwork.node[116].veinsmobility posy ETV
vector 234 FloodingNetwork.node[117].veinsmobility posx ETV
vector 235 FloodingNetwork.node[117].veinsmobility posy ETV
vector 236 FloodingNetwork.node[118].veinsmobility posx ETV
vector 237 FloodingNetwork.node[118].veinsmobility posy ETV
vector 238 FloodingNetwork.node[119].veinsmobility posx ETV
vector 239 FloodingNetwork.node[119].veinsmobility posy ETV
vector 240 FloodingNetwork.node[120].veinsmobility posx ETV
vector 241 FloodingNetwork.node[120].veinsmobility posy ETV
vector 242 FloodingNetwork.node[121].veinsmobility posx ETV
vector 243 FloodingNetwork.node[121].veinsmobility posy ETV
vector 244 FloodingNetwork.node[122].veinsmobility posx ETV
vector 245 FloodingNetwork.node[122].veinsmobility posy ETV
vector 246 FloodingNetwork.node[123].veinsmobility posx ETV
vector 247 FloodingNetwork.node[123].veinsmobility posy ETV
vector 248 FloodingNetwork.node[124].veinsmobility posx ETV
vector 249 FloodingNetwork.node[124].veinsmobility posy ETV
vector 250 FloodingNetwork.node[125].veinsmobility posx ETV
vector 251 FloodingNetwork.node[125].veinsmobility posy ETV
vector 252 FloodingNetwork.node[126].veinsmobility posx ETV
vector 253 FloodingNetwork.node[126].veinsmobility posy ETV
vector 254 FloodingNetwork.node[127].veinsmobility posx ETV
vector 255 FloodingNetwork.node[127].veinsmobility posy ETV
vector 256 FloodingNetwork.node[128].veinsmobility posx ETV
vector 257 FloodingNetwork.node[128].veinsmobility posy ETV
vector 258 FloodingNetwork.node[129].veinsmobility posx ETV
vector 259 FloodingNetwork.node[129].veinsmobility posy ETV
vector 260 FloodingNetwork.node[130].veinsmobility posx ETV
vector 261 FloodingNetwork.node[130].veinsmobility posy ETV
vector 262 FloodingNetwork.node[131].veinsmobility posx ETV
vector 263 FloodingNetwork.node[131].veinsmobility posy ETV
vector 264 FloodingNetwork.node[132].veinsmobility posx ETV
vector 265 FloodingNetwork.node[132].veinsmobility posy ETV
vector 266 FloodingNetwork.node[133].veinsmobility posx ETV
vector 267 FloodingNetwork.node[133].veinsmobility posy ETV
vector 268 FloodingNetwork.node[134].veinsmobility posx ETV
vector 269 FloodingNetwork.node[134].veinsmobility posy ETV
vector 270 FloodingNetwork.node[0].veinsmobility speed ETV
vector 271 FloodingNetwork.node[1].veinsmobility speed ETV
vector 272 FloodingNetwork.node[2].veinsmobility speed ETV
vector 273 FloodingNetwork.node[3].veinsmobility speed ETV
vector 274 FloodingNetwork.node[4].veinsmobility speed ETV
vector 275 FloodingNetwork.node[5].veinsmobility speed ETV
vector 276 FloodingNetwork.node[6].veinsmobility speed ETV
vector 277 FloodingNetwork.node[7].veinsmobility speed ETV
vector 278 FloodingNetwork.node[8].veinsmobility speed ETV
vector 279 FloodingNetwork.node[9].veinsmobility speed ETV
vector 280 FloodingNetwork.node[10].veinsmobility speed ETV
vector 281 FloodingNetwork.node[11].veinsmobility speed ETV
vector 282 FloodingNetwork.node[12].veinsmobility speed ETV
vector 283 FloodingNetwork.node[13].veinsmobility speed ETV
vector 284 FloodingNetwork.node[14].veinsmobility speed ETV
vector 285 FloodingNetwork.node[15].veinsmobility speed ETV
vector 286 FloodingNetwork.node[16].veinsmobility speed ETV
vector 287 FloodingNetwork.node[17].veinsmobility speed ETV
vector 288 FloodingNetwork.node[18].veinsmobility speed ETV
vector 289 FloodingNetwork.node[19].veinsmobility speed ETV
vector 290 FloodingNetwork.node[20].veinsmobility speed ETV
vector 291 FloodingNetwork.node[21].veinsmobility speed ETV
vector 292 FloodingNetwork.node[22].veinsmobility speed ETV
vector 293 FloodingNetwork.node[23].veinsmobility speed ETV
vector 294 FloodingNetwork.node[24].veinsmobility speed ETV
vector 295 FloodingNetwork.node[25].veinsmobility speed ETV
vector 296 FloodingNetwork.node[26].veinsmobility speed ETV
vector 297 FloodingNetwork.node[27].veinsmobility speed ETV
vector 298 FloodingNetwork.node[28].veinsmobility speed ETV
vector 299 FloodingNetwork.node[29].veinsmobility speed ETV
vector 300 FloodingNetwork.node[30].veinsmobility speed ETV
vector 301 FloodingNetwork.node[31].veinsmobility speed ETV
vector 302 FloodingNetwork.node[32].veinsmobility speed ETV
vector 303 FloodingNetwork.node[33].veinsmobility speed ETV
vector 304 FloodingNetwork.node[34].veinsmobility speed ETV
vector 305 FloodingNetwork.node[35].veinsmobility speed ETV
vector 306 FloodingNetwork.node[36].veinsmobility speed ETV
vector 307 FloodingNetwork.node[37].veinsmobility speed ETV
vector 308 FloodingNetwork.node[38].veinsmobility speed ETV
vector 309 FloodingNetwork.node[39].veinsmobility speed ETV
vector 310 FloodingNetwork.node[40].veinsmobility speed ETV
vector 311 FloodingNetwork.node[41].veinsmobility speed ETV
vector 312 FloodingNetwork.node[42].veinsmobility speed ETV
vector 313 FloodingNetwork.node[43].veinsmobility speed ETV
vector 314 FloodingNetwork.node[44].veinsmobility speed ETV
vector 315 FloodingNetwork.node[45].veinsmobility speed ETV
vector 316 FloodingNetwork.node[46].veinsmobility speed ETV
vector 317 FloodingNetwork.node[47].veinsmobility speed ETV
vector 318 FloodingNetwork.node[48].veinsmobility speed ETV
vector 319 FloodingNetwork.node[49].veinsmobility speed ETV
vector 320 FloodingNetwork.node[50].veinsmobility speed ETV
vector 321 FloodingNetwork.node[51].veinsmobility speed ETV
vector 322 FloodingNetwork.node[52].veinsmobility speed ETV
vector 323 FloodingNetwork.node[53].veinsmobility speed ETV
vector 324 FloodingNetwork.node[54].veinsmobility speed ETV
vector 325 FloodingNetwork.node[55].veinsmobility speed ETV
vector 326 FloodingNetwork.node[56].veinsmobility speed ETV
vector 327 FloodingNetwork.node[57].veinsmobility speed ETV
vector 328 FloodingNetwork.node[58].veinsmobility speed ETV
vector 329 FloodingNetwork.node[59].veinsmobility speed ETV
vector 330 FloodingNetwork.node[60].veinsmobility speed ETV
vector 331 FloodingNetwork.node[61].veinsmobility speed ETV
vector 332 FloodingNetwork.node[62].veinsmobility speed ETV
vector 333 FloodingNetwork.node[63].veinsmobility speed ETV
vector 334 FloodingNetwork.node[64].veinsmobility speed ETV
vector 335 FloodingNetwork.node[65].veinsmobility speed ETV
vector 336 FloodingNetwork.node[66].veinsmobility speed ETV
vector 337 FloodingNetwork.node[67].veinsmobility speed ETV
vector 338 FloodingNetwork.node[68].veinsmobility speed ETV
vector 339 FloodingNetwork.node[69].veinsmobility speed ETV
vector 340 FloodingNetwork.node[70].veinsmobility speed ETV
vector 341 FloodingNetwork.node[71].veinsmobility speed ETV
vector 342 FloodingNetwork.node[72].veinsmobility speed ETV
vector 343 FloodingNetwork.node[73].veinsmobility speed ETV
vector 344 FloodingNetwork.node[74].veinsmobility speed ETV
vector 345 FloodingNetwork.node[75].veinsmobility speed ETV
vector 346 FloodingNetwork.node[76].veinsmobility speed ETV
vector 347 FloodingNetwork.node[77].veinsmobility speed ETV
vector 348 FloodingNetwork.node[78].veinsmobility speed ETV
vector 349 FloodingNetwork.node[79].veinsmobility speed ETV
vector 350 FloodingNetwork.node[80].veinsmobility speed ETV
vector 351 FloodingNetwork.node[81].veinsmobility speed ETV
vector 352 FloodingNetwork.node[82].veinsmobility speed ETV
vector 353 FloodingNetwork.node[83].veinsmobility speed ETV
vector 354 FloodingNetwork.node[84].veinsmobility speed ETV
vector 355 FloodingNetwork.node[85].veinsmobility speed ETV
vector 356 FloodingNetwork.node[86].veinsmobility speed ETV
vector 357 FloodingNetwork.node[87].veinsmobility speed ETV
vector 358 FloodingNetwork.node[88].veinsmobility speed ETV
vector 359 FloodingNetwork.node[89].veinsmobility speed ETV
vector 360 FloodingNetwork.node[90].veinsmobility speed ETV
vector 361 FloodingNetwork.node[91].veinsmobility speed ETV
vector 362 FloodingNetwork.node[92].veinsmobility speed ETV
vector 363 FloodingNetwork.node[93].veinsmobility speed ETV
vector 364 FloodingNetwork.node[94].veinsmobility speed ETV
vector 365 FloodingNetwork.node[95].veinsmobility speed ETV
vector 366 FloodingNetwork.node[96].veinsmobility speed ETV
vector 367 FloodingNetwork.node[97].veinsmobility speed ETV
vector 368 FloodingNetwork.node[98].veinsmobility speed ETV
vector 369 FloodingNetwork.node[99].veinsmobility speed ETV
vector 370 FloodingNetwork.node[100].veinsmobility speed ETV
vector 371 FloodingNetwork.node[101].veinsmobility speed ETV
vector 372 FloodingNetwork.node[102].veinsmobility speed ETV
vector 373 FloodingNetwork.node[103].veinsmobility speed ETV
vector 374 FloodingNetwork.node[104].veinsmobility speed ETV
vector 375 FloodingNetwork.node[105].veinsmobility speed ETV
vector 376 FloodingNetwork.node[106].veinsmobility speed ETV
vector 377 FloodingNetwork.node[107].veinsmobility speed ETV
vector 378 FloodingNetwork.node[108].veinsmobility speed ETV
vector 379 FloodingNetwork.node[109].veinsmobility speed ETV
vector 380 FloodingNetwork.node[110].veinsmobility speed ETV
vector 381 FloodingNetwork.node[111].veinsmobility speed ETV
vector 382 FloodingNetwork.node[112].veinsmobility speed ETV
vector 383 FloodingNetwork.node[113].veinsmobility speed ETV
vector 384 FloodingNetwork.node[114].veinsmobility speed ETV
vector 385 FloodingNetwork.node[115].veinsmobility speed ETV
vector 386 FloodingNetwork.node[116].veinsmobility speed ETV
vector 387 FloodingNetwork.node[117].veinsmobility speed ETV
vector 388 FloodingNetwork.node[118].veinsmobility speed ETV
vector 389 FloodingNetwork.node[119].veinsmobility speed ETV
vector 390 FloodingNetwork.node[120].veinsmobility speed ETV
vector 391 FloodingNetwork.node[121].veinsmobility speed ETV
vector 392 FloodingNetwork.node[122].veinsmobility speed ETV
vector 393 FloodingNetwork.node[123].veinsmobility speed ETV
vector 394 FloodingNetwork.node[124].veinsmobility speed ETV
vector 395 FloodingNetwork.node[125].veinsmobility speed ETV
vector 396 FloodingNetwork.node[126].veinsmobility speed ETV
vector 397 FloodingNetwork.node[127].veinsmobility speed ETV
vector 398 FloodingNetwork.node[128].veinsmobility speed ETV
vector 399 FloodingNetwork.node[129].veinsmobility speed ETV
vector 400 FloodingNetwork.node[130].veinsmobility speed ETV
vector 401 FloodingNetwork.node[131].veinsmobility speed ETV
vector 402 FloodingNetwork.node[132].veinsmobility speed ETV
vector 403 FloodingNetwork.node[133].veinsmobility speed ETV
vector 404 FloodingNetwork.node[134].veinsmobility speed ETV
vector 405 FloodingNetwork.node[0].veinsmobility acceleration ETV
vector 406 FloodingNetwork.node[0].veinsmobility co2emission ETV
vector 407 FloodingNetwork.node[1].veinsmobility acceleration ETV
vector 408 FloodingNetwork.node[1].veinsmobility co2emission ETV
vector 409 FloodingNetwork.node[2].veinsmobility acceleration ETV
vector 410 FloodingNetwork.node[2].veinsmobility co2emission ETV
vector 411 FloodingNetwork.node[3].veinsmobility acceleration ETV
vector 412 FloodingNetwork.node[3].veinsmobility co2emission ETV
vector 413 FloodingNetwork.node[4].veinsmobility acceleration ETV
vector 414 FloodingNetwork.node[4].veinsmobility co2emission ETV
vector 415 FloodingNetwork.node[5].veinsmobility acceleration ETV
vector 416 FloodingNetwork.node[5].veinsmobility co2emission ETV
vector 417 FloodingNetwork.node[6].veinsmobility acceleration ETV
vector 418 FloodingNetwork.node[6].veinsmobility co2emission ETV
vector 419 FloodingNetwork.node[7].veinsmobility acceleration ETV
vector 420 FloodingNetwork.node[7].veinsmobility co2emission ETV
vector 421 FloodingNetwork.node[8].veinsmobility acceleration ETV
vector 422 FloodingNetwork.node[8].veinsmobility co2emission ETV
vector 423 FloodingNetwork.node[9].veinsmobility acceleration ETV
vector 424 FloodingNetwork.node[9].veinsmobility co2emission ETV
vector 425 FloodingNetwork.node[10].veinsmobility acceleration ETV
vector 426 FloodingNetwork.node[10].veinsmobility co2emission ETV
vector 427 FloodingNetwork.node[11].veinsmobility acceleration ETV
vector 428 FloodingNetwork.node[11].veinsmobility co2emission ETV
vector 429 FloodingNetwork.node[12].veinsmobility acceleration ETV
vector 430 FloodingNetwork.node[12].veinsmobility co2emission ETV
vector 431 FloodingNetwork.node[13].veinsmobility acceleration ETV
vector 432 FloodingNetwork.node[13].veinsmobility co2emission ETV
vector 433 FloodingNetwork.node[14].veinsmobility acceleration ETV
vector 434 FloodingNetwork.node[14].veinsmobility co2emission ETV
vector 435 FloodingNetwork.node[15].veinsmobility acceleration ETV
vector 436 FloodingNetwork.node[15].veinsmobility co2emission ETV
vector 437 FloodingNetwork.node[16].veinsmobility acceleration ETV
vector 438 FloodingNetwork.node[16].veinsmobility co2emission ETV
vector 439 FloodingNetwork.node[17].veinsmobility acceleration ETV
vector 440 FloodingNetwork.node[17].veinsmobility co2emission ETV
vector 441 FloodingNetwork.node[18].veinsmobility acceleration ETV
vector 442 FloodingNetwork.node[18].veinsmobility co2emission ETV
vector 443 FloodingNetwork.node[19].veinsmobility acceleration ETV
vector 444 FloodingNetwork.node[19].veinsmobility co2emission ETV
vector 445 FloodingNetwork.node[20].veinsmobility acceleration ETV
vector 446 FloodingNetwork.node[20].veinsmobility co2emission ETV
vector 447 FloodingNetwork.node[21].veinsmobility acceleration ETV
vector 448 FloodingNetwork.node[21].veinsmobility co2emission ETV
vector 449 FloodingNetwork.node[22].veinsmobility acceleration ETV
vector 450 FloodingNetwork.node[22].veinsmobility co2emission ETV
vector 451 FloodingNetwork.node[23].veinsmobility acceleration ETV
vector 452 FloodingNetwork.node[23].veinsmobility co2emission ETV
vector 453 FloodingNetwork.node[24].veinsmobility acceleration ETV
vector 454 FloodingNetwork.node[24].veinsmobility co2emission ETV
vector 455 FloodingNetwork.node[25].veinsmobility acceleration ETV
vector 456 FloodingNetwork.node[25].veinsmobility co2emission ETV
vector 457 FloodingNetwork.node[26].veinsmobility acceleration ETV
vector 458 FloodingNetwork.node[26].veinsmobility co2emission ETV
vector 459 FloodingNetwork.node[27].veinsmobility acceleration ETV
vector 460 FloodingNetwork.node[27].veinsmobility co2emission ETV
vector 461 FloodingNetwork.node[28].veinsmobility acceleration ETV
vector 462 FloodingNetwork.node[28].veinsmobility co2emission ETV
vector 463 FloodingNetwork.node[29].veinsmobility acceleration ETV
vector 464 FloodingNetwork.node[29].veinsmobility co2emission ETV
vector 465 FloodingNetwork.node[30].veinsmobility acceleration ETV
vector 466 FloodingNetwork.node[30].veinsmobility co2emission ETV
vector 467 FloodingNetwork.node[31].veinsmobility acceleration ETV
vector 468 FloodingNetwork.node[31].veinsmobility co2emission ETV
vector 469 FloodingNetwork.node[32].veinsmobility acceleration ETV
vector 470 FloodingNetwork.node[32].veinsmobility co2emission ETV
vector 471 FloodingNetwork.node[33].veinsmobility acceleration ETV
vector 472 FloodingNetwork.node[33].veinsmobility co2emission ETV
vector 473 FloodingNetwork.node[34].veinsmobility acceleration ETV
vector 474 FloodingNetwork.node[34].veinsmobility co2emission ETV
vector 475 FloodingNetwork.node[35].veinsmobility acceleration ETV
vector 476 FloodingNetwork.node[35].veinsmobility co2emission ETV
vector 477 FloodingNetwork.node[36].veinsmobility acceleration ETV
vector 478 FloodingNetwork.node[36].veinsmobility co2emission ETV
vector 479 FloodingNetwork.node[37].veinsmobility acceleration ETV
vector 480 FloodingNetwork.node[37].veinsmobility co2emission ETV
vector 481 FloodingNetwork.node[38].veinsmobility acceleration ETV
vector 482 FloodingNetwork.node[38].veinsmobility co2emission ETV
vector 483 FloodingNetwork.node[39].veinsmobility acceleration ETV
vector 484 FloodingNetwork.node[39].veinsmobility co2emission ETV
vector 485 FloodingNetwork.node[40].veinsmobility acceleration ETV
vector 486 FloodingNetwork.node[40].veinsmobility co2emission ETV
vector 487 FloodingNetwork.node[41].veinsmobility acceleration ETV
vector 488 FloodingNetwork.node[41].veinsmobility co2emission ETV
vector 489 FloodingNetwork.node[42].veinsmobility acceleration ETV
vector 490 FloodingNetwork.node[42].veinsmobility co2emission ETV
vector 491 FloodingNetwork.node[43].veinsmobility acceleration ETV
vector 492 FloodingNetwork.node[43].veinsmobility co2emission ETV
vector 493 FloodingNetwork.node[44].veinsmobility acceleration ETV
vector 494 FloodingNetwork.node[44].veinsmobility co2emission ETV
vector 495 FloodingNetwork.node[45].veinsmobility acceleration ETV
vector 496 FloodingNetwork.node[45].veinsmobility co2emission ETV
vector 497 FloodingNetwork.node[46].veinsmobility acceleration ETV
vector 498 FloodingNetwork.node[46].veinsmobility co2emission ETV
vector 499 FloodingNetwork.node[47].veinsmobility acceleration ETV
vector 500 FloodingNetwork.node[47].veinsmobility co2emission ETV
vector 501 FloodingNetwork.node[48].veinsmobility acceleration ETV
vector 502 FloodingNetwork.node[48].veinsmobility co2emission ETV
vector 503 FloodingNetwork.node[49].veinsmobility acceleration ETV
vector 504 FloodingNetwork.node[49].veinsmobility co2emission ETV
vector 505 FloodingNetwork.node[50].veinsmobility acceleration ETV
vector 506 FloodingNetwork.node[50].veinsmobility co2emission ETV
vector 507 FloodingNetwork.node[51].veinsmobility acceleration ETV
vector 508 FloodingNetwork.node[51].veinsmobility co2emission ETV
vector 509 FloodingNetwork.node[52].veinsmobility acceleration ETV
vector 510 FloodingNetwork.node[52].veinsmobility co2emission ETV
vector 511 FloodingNetwork.node[53].veinsmobility acceleration ETV
vector 512 FloodingNetwork.node[53].veinsmobility co2emission ETV
vector 513 FloodingNetwork.node[54].veinsmobility acceleration ETV
vector 514 FloodingNetwork.node[54].veinsmobility co2emission ETV
vector 515 FloodingNetwork.node[55].veinsmobility acceleration ETV
vector 516 FloodingNetwork.node[55].veinsmobility co2emission ETV
vector 517 FloodingNetwork.node[56].veinsmobility acceleration ETV
vector 518 FloodingNetwork.node[56].veinsmobility co2emission ETV
vector 519 FloodingNetwork.node[57].veinsmobility acceleration ETV
vector 520 FloodingNetwork.node[57].veinsmobility co2emission ETV
vector 521 FloodingNetwork.node[58].veinsmobility acceleration ETV
vector 522 FloodingNetwork.node[58].veinsmobility co2emission ETV
vector 523 FloodingNetwork.node[59].veinsmobility acceleration ETV
vector 524 FloodingNetwork.node[59].veinsmobility co2emission ETV
vector 525 FloodingNetwork.node[60].veinsmobility acceleration ETV
vector 526 FloodingNetwork.node[60].veinsmobility co2emission ETV
vector 527 FloodingNetwork.node[61].veinsmobility acceleration ETV
vector 528 FloodingNetwork.node[61].veinsmobility co2emission ETV
vector 529 FloodingNetwork.node[62].veinsmobility acceleration ETV
vector 530 FloodingNetwork.node[62].veinsmobility co2emission ETV
vector 531 FloodingNetwork.node[63].veinsmobility acceleration ETV
vector 532 FloodingNetwork.node[63].veinsmobility co2emission ETV
vector 533 FloodingNetwork.node[64].veinsmobility acceleration ETV
vector 534 FloodingNetwork.node[64].veinsmobility co2emission ETV
vector 535 FloodingNetwork.node[65].veinsmobility acceleration ETV
vector 536 FloodingNetwork.node[65].veinsmobility co2emission ETV
vector 537 FloodingNetwork.node[66].veinsmobility acceleration ETV
vector 538 FloodingNetwork.node[66].veinsmobility co2emission ETV
vector 539 FloodingNetwork.node[67].veinsmobility acceleration ETV
vector 540 FloodingNetwork.node[67].veinsmobility co2emission ETV
vector 541 FloodingNetwork.node[68].veinsmobility acceleration ETV
vector 542 FloodingNetwork.node[68].veinsmobility co2emission ETV
vector 543 FloodingNetwork.node[69].veinsmobility acceleration ETV
vector 544 FloodingNetwork.node[69].veinsmobility co2emission ETV
vector 545 FloodingNetwork.node[70].veinsmobility acceleration ETV
vector 546 FloodingNetwork.node[70].veinsmobility co2emission ETV
vector 547 FloodingNetwork.node[71].veinsmobility acceleration ETV
vector 548 FloodingNetwork.node[71].veinsmobility co2emission ETV
vector 549 FloodingNetwork.node[72].veinsmobility acceleration ETV
vector 550 FloodingNetwork.node[72].veinsmobility co2emission ETV
vector 551 FloodingNetwork.node[73].veinsmobility acceleration ETV
vector 552 FloodingNetwork.node[73].veinsmobility co2emission ETV
vector 553 FloodingNetwork.node[74].veinsmobility acceleration ETV
vector 554 FloodingNetwork.node[74].veinsmobility co2emission ETV
vector 555 FloodingNetwork.node[75].veinsmobility acceleration ETV
vector 556 FloodingNetwork.node[75].veinsmobility co2emission ETV
vector 557 FloodingNetwork.node[76].veinsmobility acceleration ETV
vector 558 FloodingNetwork.node[76].veinsmobility co2emission ETV
vector 559 FloodingNetwork.node[77].veinsmobility acceleration ETV
vector 560 FloodingNetwork.node[77].veinsmobility co2emission ETV
vector 561 FloodingNetwork.node[78].veinsmobility acceleration ETV
vector 562 FloodingNetwork.node[78].veinsmobility co2emission ETV
vector 563 FloodingNetwork.node[79].veinsmobility acceleration ETV
vector 564 FloodingNetwork.node[79].veinsmobility co2emission ETV
vector 565 FloodingNetwork.node[80].veinsmobility acceleration ETV
vector 566 FloodingNetwork.node[80].veinsmobility co2emission ETV
vector 567 FloodingNetwork.node[81].veinsmobility acceleration ETV
vector 568 FloodingNetwork.node[81].veinsmobility co2emission ETV
vector 569 FloodingNetwork.node[82].veinsmobility acceleration ETV
vector 570 FloodingNetwork.node[82].veinsmobility co2emission ETV
vector 571 FloodingNetwork.node[83].veinsmobility acceleration ETV
vector 572 FloodingNetwork.node[83].veinsmobility co2emission ETV
vector 573 FloodingNetwork.node[84].veinsmobility acceleration ETV
vector 574 FloodingNetwork.node[84].veinsmobility co2emission ETV
vector 575 FloodingNetwork.node[85].veinsmobility acceleration ETV
vector 576 FloodingNetwork.node[85].veinsmobility co2emission ETV
vector 577 FloodingNetwork.node[86].veinsmobility acceleration ETV
vector 578 FloodingNetwork.node[86].veinsmobility co2emission ETV
vector 579 FloodingNetwork.node[87].veinsmobility acceleration ETV
vector 580 FloodingNetwork.node[87].veinsmobility co2emission ETV
vector 581 FloodingNetwork.node[88].veinsmobility acceleration ETV
vector 582 FloodingNetwork.node[88].veinsmobility co2emission ETV
vector 583 FloodingNetwork.node[89].veinsmobility acceleration ETV
vector 584 FloodingNetwork.node[89].veinsmobility co2emission ETV
vector 585 FloodingNetwork.node[90].veinsmobility acceleration ETV
vector 586 FloodingNetwork.node[90].veinsmobility co2emission ETV
vector 587 FloodingNetwork.node[91].veinsmobility acceleration ETV
vector 588 FloodingNetwork.node[91].veinsmobility co2emission ETV
vector 589 FloodingNetwork.node[92].veinsmobility acceleration ETV
vector 590 FloodingNetwork.node[92].veinsmobility co2emission ETV
vector 591 FloodingNetwork.node[93].veinsmobility acceleration ETV
vector 592 FloodingNetwork.node[93].veinsmobility co2emission ETV
vector 593 FloodingNetwork.node[94].veinsmobility acceleration ETV
vector 594 FloodingNetwork.node[94].veinsmobility co2emission ETV
vector 595 FloodingNetwork.node[95].veinsmobility acceleration ETV
vector 596 FloodingNetwork.node[95].veinsmobility co2emission ETV
vector 597 FloodingNetwork.node[96].veinsmobility acceleration ETV
vector 598 FloodingNetwork.node[96].veinsmobility co2emission ETV
vector 599 FloodingNetwork.node[97].veinsmobility acceleration ETV
vector 600 FloodingNetwork.node[97].veinsmobility co2emission ETV
vector 601 FloodingNetwork.node[98].veinsmobility acceleration ETV
vector 602 FloodingNetwork.node[98].veinsmobility co2emission ETV
vector 603 FloodingNetwork.node[99].veinsmobility acceleration ETV
vector 604 FloodingNetwork.node[99].veinsmobility co2emission ETV
vector 605 FloodingNetwork.node[100].veinsmobility acceleration ETV
vector 606 FloodingNetwork.node[100].veinsmobility co2emission ETV
vector 607 FloodingNetwork.node[101].veinsmobility acceleration ETV
vector 608 FloodingNetwork.node[101].veinsmobility co2emission ETV
vector 609 FloodingNetwork.node[102].veinsmobility acceleration ETV
vector 610 FloodingNetwork.node[102].veinsmobility co2emission ETV
vector 611 FloodingNetwork.node[103].veinsmobility acceleration ETV
vector 612 FloodingNetwork.node[103].veinsmobility co2emission ETV
vector 613 FloodingNetwork.node[104].veinsmobility acceleration ETV
vector 614 FloodingNetwork.node[104].veinsmobility co2emission ETV
vector 615 FloodingNetwork.node[105].veinsmobility acceleration ETV
vector 616 FloodingNetwork.node[105].veinsmobility co2emission ETV
vector 617 FloodingNetwork.node[106].veinsmobility acceleration ETV
vector 618 FloodingNetwork.node[106].veinsmobility co2emission ETV
vector 619 FloodingNetwork.node[107].veinsmobility acceleration ETV
vector 620 FloodingNetwork.node[107].veinsmobility co2emission ETV
vector 621 FloodingNetwork.node[108].veinsmobility acceleration ETV
vector 622 FloodingNetwork.node[108].veinsmobility co2emission ETV
vector 623 FloodingNetwork.node[109].veinsmobility acceleration ETV
vector 624 FloodingNetwork.node[109].veinsmobility co2emission ETV
vector 625 FloodingNetwork.node[110].veinsmobility acceleration ETV
vector 626 FloodingNetwork.node[110].veinsmobility co2emission ETV
vector 627 FloodingNetwork.node[111].veinsmobility acceleration ETV
vector 628 FloodingNetwork.node[111].veinsmobility co2emission ETV
vector 629 FloodingNetwork.node[112].veinsmobility acceleration ETV
vector 630 FloodingNetwork.node[112].veinsmobility co2emission ETV
vector 631 FloodingNetwork.node[113].veinsmobility acceleration ETV
vector 632 FloodingNetwork.node[113].veinsmobility co2emission ETV
vector 633 FloodingNetwork.node[114].veinsmobility acceleration ETV
vector 634 FloodingNetwork.node[114].veinsmobility co2emission ETV
vector 635 FloodingNetwork.node[115].veinsmobility acceleration ETV
vector 636 FloodingNetwork.node[115].veinsmobility co2emission ETV
vector 637 FloodingNetwork.node[116].veinsmobility acceleration ETV
vector 638 FloodingNetwork.node[116].veinsmobility co2emission ETV
vector 639 FloodingNetwork.node[117].veinsmobility acceleration ETV
vector 640 FloodingNetwork.node[117].veinsmobility co2emission ETV
vector 641 FloodingNetwork.node[118].veinsmobility acceleration ETV
vector 642 FloodingNetwork.node[118].veinsmobility co2emission ETV
vector 643 FloodingNetwork.node[119].veinsmobility acceleration ETV
vector 644 FloodingNetwork.node[119].veinsmobility co2emission ETV
vector 645 FloodingNetwork.node[120].veinsmobility acceleration ETV
vector 646 FloodingNetwork.node[120].veinsmobility co2emission ETV
vector 647 FloodingNetwork.node[121].veinsmobility acceleration ETV
vector 648 FloodingNetwork.node[121].veinsmobility co2emission ETV
vector 649 FloodingNetwork.node[122].veinsmobility acceleration ETV
vector 650 FloodingNetwork.node[122].veinsmobility co2emission ETV
vector 651 FloodingNetwork.node[123].veinsmobility acceleration ETV
vector 652 FloodingNetwork.node[123].veinsmobility co2emission ETV
vector 653 FloodingNetwork.node[124].veinsmobility acceleration ETV
vector 654 FloodingNetwork.node[124].veinsmobility co2emission ETV
vector 655 FloodingNetwork.node[125].veinsmobility acceleration ETV
vector 656 FloodingNetwork.node[125].veinsmobility co2emission ETV
vector 657 FloodingNetwork.node[126].veinsmobility acceleration ETV
vector 658 FloodingNetwork.node[126].veinsmobility co2emission ETV
vector 659 FloodingNetwork.node[127].veinsmobility acceleration ETV
vector 660 FloodingNetwork.node[127].veinsmobility co2emission ETV
vector 661 FloodingNetwork.node[128].veinsmobility acceleration ETV
vector 662 FloodingNetwork.node[128].veinsmobility co2emission ETV
vector 663 FloodingNetwork.node[129].veinsmobility acceleration ETV
vector 664 FloodingNetwork.node[129].veinsmobility co2emission ETV
vector 665 FloodingNetwork.node[130].veinsmobility acceleration ETV
vector 666 FloodingNetwork.node[130].veinsmobility co2emission ETV
vector 667 FloodingNetwork.node[131].veinsmobility acceleration ETV
vector 668 FloodingNetwork.node[131].veinsmobility co2emission ETV
vector 669 FloodingNetwork.node[132].veinsmobility acceleration ETV
vector 670 FloodingNetwork.node[132].veinsmobility co2emission ETV
vector 671 FloodingNetwork.node[133].veinsmobility acceleration ETV
vector 672 FloodingNetwork.node[133].veinsmobility co2emission ETV
vector 673 FloodingNetwork.node[134].veinsmobility acceleration ETV
vector 674 FloodingNetwork.node[134].veinsmobility co2emission ETV
vector 675 FloodingNetwork.node[135].veinsmobility posx ETV
vector 676 FloodingNetwork.node[135].veinsmobility posy ETV
vector 677 FloodingNetwork.node[136].veinsmobility posx ETV
vector 678 FloodingNetwork.node[136].veinsmobility posy ETV
vector 679 FloodingNetwork.node[137].veinsmobility posx ETV
vector 680 FloodingNetwork.node[137].veinsmobility posy ETV
vector 681 FloodingNetwork.node[138].veinsmobility posx ETV
vector 682 FloodingNetwork.node[138].veinsmobility posy ETV
vector 683 FloodingNetwork.node[139].veinsmobility posx ETV
vector 684 FloodingNetwork.node[139].veinsmobility posy ETV
vector 685 FloodingNetwork.node[140].veinsmobility posx ETV
vector 686 FloodingNetwork.node[140].veinsmobility posy ETV
vector 687 FloodingNetwork.node[141].veinsmobility posx ETV
vector 688 FloodingNetwork.node[141].veinsmobility posy ETV
vector 689 FloodingNetwork.node[142].veinsmobility posx ETV
vector 690 FloodingNetwork.node[142].veinsmobility posy ETV
vector 691 FloodingNetwork.node[143].veinsmobility posx ETV
vector 692 FloodingNetwork.node[143].veinsmobility posy ETV
vector 693 FloodingNetwork.node[144].veinsmobility posx ETV
vector 694 FloodingNetwork.node[144].veinsmobility posy ETV
vector 695 FloodingNetwork.node[145].veinsmobility posx ETV
vector 696 FloodingNetwork.node[145].veinsmobility posy ETV
vector 697 FloodingNetwork.node[146].veinsmobility posx ETV
vector 698 FloodingNetwork.node[146].veinsmobility posy ETV
vector 699 FloodingNetwork.node[135].veinsmobility speed ETV
vector 700 FloodingNetwork.node[136].veinsmobility speed ETV
vector 701 FloodingNetwork.node[137].veinsmobility speed ETV
vector 702 FloodingNetwork.node[138].veinsmobility speed ETV
vector 703 FloodingNetwork.node[139].veinsmobility speed ETV
vector 704 FloodingNetwork.node[140].veinsmobility speed ETV
vector 705 FloodingNetwork.node[141].veinsmobility speed ETV
vector 706 FloodingNetwork.node[142].veinsmobility speed ETV
vector 707 FloodingNetwork.node[135].veinsmobility acceleration ETV
vector 708 FloodingNetwork.node[135].veinsmobility co2emission ETV
vector 709 FloodingNetwork.node[136].veinsmobility acceleration ETV
vector 710 FloodingNetwork.node[136].veinsmobility co2emission ETV
vector 711 FloodingNetwork.node[137].veinsmobility acceleration ETV
vector 712 FloodingNetwork.node[137].veinsmobility co2emission ETV
vector 713 FloodingNetwork.node[138].veinsmobility acceleration ETV
vector 714 FloodingNetwork.node[138].veinsmobility co2emission ETV
vector 715 FloodingNetwork.node[139].veinsmobility acceleration ETV
vector 716 FloodingNetwork.node[139].veinsmobility co2emission ETV
vector 717 FloodingNetwork.node[140].veinsmobility acceleration ETV
vector 718 FloodingNetwork.node[140].veinsmobility co2emission ETV
vector 719 FloodingNetwork.node[141].veinsmobility acceleration ETV
vector 720 FloodingNetwork.node[141].veinsmobility co2emission ETV
vector 721 FloodingNetwork.node[142].veinsmobility acceleration ETV
vector 722 FloodingNetwork.node[142].veinsmobility co2emission ETV
vector 723 FloodingNetwork.node[143].veinsmobility speed ETV
vector 724 FloodingNetwork.node[144].veinsmobility speed ETV
vector 725 FloodingNetwork.node[145].veinsmobility speed ETV
vector 726 FloodingNetwork.node[146].veinsmobility speed ETV
vector 727 FloodingNetwork.node[143].veinsmobility acceleration ETV
vector 728 FloodingNetwork.node[143].veinsmobility co2emission ETV
vector 729 FloodingNetwork.node[144].veinsmobility acceleration ETV
vector 730 FloodingNetwork.node[144].veinsmobility co2emission ETV
vector 731 FloodingNetwork.node[145].veinsmobility acceleration ETV
vector 732 FloodingNetwork.node[145].veinsmobility co2emission ETV
vector 733 FloodingNetwork.node[146].veinsmobility acceleration ETV
vector 734 FloodingNetwork.node[146].veinsmobility co2emission ETV
vector 735 FloodingNetwork.node[147].veinsmobility posx ETV
vector 736 FloodingNetwork.node[147].veinsmobility posy ETV
vector 737 FloodingNetwork.node[148].veinsmobility posx ETV
vector 738 FloodingNetwork.node[148].veinsmobility posy ETV
vector 739 FloodingNetwork.node[147].veinsmobility speed ETV
vector 740 FloodingNetwork.node[148].veinsmobility speed ETV
vector 741 FloodingNetwork.node[147].veinsmobility acceleration ETV
vector 742 FloodingNetwork.node[147].veinsmobility co2emission ETV
vector 743 FloodingNetwork.node[148].veinsmobility acceleration ETV
vector 744 FloodingNetwork.node[148].veinsmobility co2emission ETV
vector 745 FloodingNetwork.node[149].veinsmobility posx ETV
vector 746 FloodingNetwork.node[149].veinsmobility posy ETV
vector 747 FloodingNetwork.node[149].veinsmobility speed ETV
vector 748 FloodingNetwork.node[149].veinsmobility acceleration ETV
vector 749 FloodingNetwork.node[149].veinsmobility co2emission ETV
0	49905 20055 37 379028 1.2 71.2 701 2137.6961439954 2796.65 1750070.5063658 4398513640.9316
1	69960 15364 37 379028 1.2 71.2 701 116.75 189.55 85327.845021758 10504757.145226
2	85324 18432 37 379028 1.2 71.2 701 2062.2215166509 2504.55 1588985.1165907 3607461132.1311
3	103756 17952 37 379028 1.2 71.2 701 1156.75 1556.75 964588.09319819 1345059524.3334
4	121708 20076 37 379028 1.2 71.2 701 603.25 1423.1902243312 691980.75894527 728638140.00292
5	141784 15875 37 379028 1.2 71.2 701 1969.95 2029.55 1384024.8080083 2732610339.3189
6	157659 16630 37 379028 1.2 71.2 701 2786.75 2810.9 1954230.2875885 5447961883.8079
7	174289 20436 37 379028 1.2 71.2 701 683.35 1394.2862460586 723700.05497898 778098069.68616
8	194725 17981 37 379028 1.2 71.2 701 49.968045570773 313.42910718517 81637.6109365 14588029.091282
9	212706 17823 37 379028 1.2 71.2 701 2045.9696701547 2436.75 1569489.9701598 3531669217.7111
10	230529 18956 37 379028 1.2 71.2 701 2152.2203542747 2504.55 1602369.4070279 3667066658.3977
11	249485 18836 37 379028 1.2 71.2 701 996.75 1396.75 869945.25571975 1095546007.3401
12	268321 16769 37 379028 1.2 71.2 701 311.75 315.04531926281 218841.83501822 68319775.838967
13	285090 21198 37 379028 1.2 71.2 701 940.45 1702.5733404751 925497.65599945 1255420671.3821
14	306288 17147 37 379028 1.2 71.2 701 2786.75 2796.65 1954433.8292173 5449094504.6269
15	323435 21214 37 379028 1.2 71.2 701 1014.7663945454 1696.1027770472 931313.86574856 1267170094.1162
16	344649 18935 37 379028 1.2 71.2 701 2094.3642270143 2504.55 1593116.4343988 3625326734.4817
17	363584 18753 37 379028 1.2 71.2 701 916.75 1316.75 803084.80638054 936871095.06769
18	382337 18905 37 379028 1.2 71.2 701 311.75 579.55 258753.66697979 99540632.94519
19	401242 18553 37 379028 1.2 71.2 701 843.35 1253.25 720000.3342857 757946169.8802
20	419795 16249 37 379028 1.2 71.2 701 49.950149515463 53.25 37029.146659429 1956580.8914889
21	436044 21197 37 379028 1.2 71.2 701 1180.0974705166 1949.55 1096596.8957097 1749937479.394
22	457241 19116 37 379028 1.2 71.2 701 983.12381536154 1404.55 816202.97299416 955811018.71587
23	476357 18362 37 379028 1.2 71.2 701 123.35 523.35 208450.01300907 79547088.118383
24	494719 18825 37 379028 1.2 71.2 701 311.75 579.55 256311.18305322 97596748.800231
25	513544 18629 37 379028 1.2 71.2 701 603.35 1013.25 543616.88415086 439198060.2221
26	532173 18749 37 379028 1.2 71.2 701 335.45 717.89132734614 397760.74628053 230668635.07756
27	550922 18759 37 379028 1.2 71.2 701 1566.65 1966.65 1264222.2666516 2296743585.4108
28	569681 19222 37 379028 1.2 71.2 701 2535.45 2803.25 1922070.0755098 5274501763.9043
29	588903 18681 37 379028 1.2 71.2 701 1236.75 1646.65 1019257.7637673 1500902182.3071
30	607584 18207 37 379028 1.2 71.2 701 49.95 304.55 69268.827482791 10626015.973628
31	625791 18904 37 379028 1.2 71.2 701 1566.65 1956.75 1274916.1505336 2332663418.2873
32	644695 18947 37 379028 1.2 71.2 701 335.45 836.49070525578 411569.95370745 248721902.69739
33	663642 18101 37 379028 1.2 71.2 701 53.25 453.25 172668.1703928 60804621.245603
34	681743 18565 37 379028 1.2 71.2 701 311.75 579.55 254954.36281511 97008426.517123
35	700308 18826 37 379028 1.2 71.2 701 683.35 1089.95 578628.58495935 492434761.72177
36	719134 19230 37 379028 1.2 71.2 701 2260.45 2528.25 1728253.0020568 4265434715.0101
37	738364 18667 37 379028 1.2 71.2 701 2036.75 2446.65 1577946.6152943 3570900132.2814
38	757031 17328 37 379028 1.2 71.2 701 2236.75 2240.0464186343 1568266.2668406 3508501417.9983
39	774359 21180 37 379028 1.2 71.2 701 220.45 1000.2797248705 430796.3674444 300262056.18964
40	795539 19225 37 379028 1.2 71.2 701 1985.45 2253.25 1537210.3734271 3375175328.3757
41	814764 18573 37 379028 1.2 71.2 701 916.75 1326.65 796384.14580933 923470415.28989
42	833337 19553 37 379028 1.2 71.2 701 2260.45 2528.25 1717499.1447869 4213258398.4377
43	852890 18007 37 379028 1.2 71.2 701 916.75 1246.65 761028.3642418 839587256.42151
44	870897 19224 37 379028 1.2 71.2 701 1435.45 1915.8474454045 1184057.6279653 2006633901.223
45	890121 18586 37 379028 1.2 71.2 701 1246.65 1646.65 1022018.9292922 1508307713.824
46	908707 18064 37 379028 1.2 71.2 701 2306.143377966 2514.9912939626 1746494.1919699 4352964737.916
47	926771 20067 37 379028 1.2 71.2 701 700.45 1323.35 753887.21104021 839653675.72214
48	946838 16655 37 379028 1.2 71.2 701 861.75 871.65 604902.33562522 521983274.27736
49	963493 21197 37 379028 1.2 71.2 701 1334.77561779 2038.511630893 1166360.9181987 1973162602.4647
50	984690 20806 37 379028 1.2 71.2 701 1342.4065115875 1960.2063529329 1176949.4807203 2001421944.3487
51	1005496 15897 37 379028 1.2 71.2 701 360.05 436.75 261351.6208709 97799881.494859
52	1021393 17168 37 379028 1.2 71.2 701 1968.35 1978.25 1385908.1619413 2740007106.3387
53	1038561 21188 37 379028 1.2 71.2 701 1743.8957893294 2435.267401589 1483340.1625988 3169584027.2029
54	1059749 20327 37 379028 1.2 71.2 701 875.04245317176 1643.2431617089 834701.3125135 1036317629.2099
55	1080076 16492 37 379028 1.2 71.2 701 209.95 349.55 156843.68363231 35760184.284505
56	1096568 17284 37 379028 1.2 71.2 701 2236.75 2246.65 1568765.5261714 3510739732.4974
57	1113852 21193 37 379028 1.2 71.2 701 1254.772870341 1969.3610898797 1114546.8992823 1805447587.7219
58	1135045 17797 37 379028 1.2 71.2 701 2614.1552285163 2796.65 1943755.9803465 5390787954.1842
59	1152842 20201 37 379028 1.2 71.2 701 694.73062280445 1243.35 699563.4586945 723270344.6504
60	1173043 17205 37 379028 1.2 71.2 701 1418.35 1428.25 1000342.6978927 1427516574.0374
61	1190248 21181 37 379028 1.2 71.2 701 1763.2279515934 2435.2201407324 1489397.2722463 3193588165.8379
62	1211429 20059 37 379028 1.2 71.2 701 2026.6737010889 2790.0498382978 1763420.9039939 4479553613.9382
63	1231488 17564 37 379028 1.2 71.2 701 1340.45 1560.05 1071539.099179 1640264085.9169
64	1249052 18960 37 379028 1.2 71.2 701 60.45 538.73315691002 219892.61620634 75538923.920443
65	1268012 18586 37 379028 1.2 71.2 701 1726.65 2126.65 1358777.7790081 2651997940.3738
66	1286598 17484 37 379028 1.2 71.2 701 1961.75 1965.049652184 1375534.5540199 2699138049.9159
67	1304082 21204 37 379028 1.2 71.2 701 29.1 799.80529285327 288952.05350642 154260449.8629
68	1325286 16755 37 379028 1.2 71.2 701 311.75 321.65 219358.41551386 68646957.804353
69	1342041 21185 37 379028 1.2 71.2 701 1334.7793264702 2045.0790049979 1169055.1928344 1982803612.2869
70	1363226 18360 37 379028 1.2 71.2 701 1435.45 1690.0354589236 1160964.4100307 1925726876.9924
71	1381586 19616 37 379028 1.2 71.2 701 293.25 859.23108300484 352623.94847821 202224114.47465
72	1401202 17274 37 379028 1.2 71.2 701 1411.75 1415.0455200524 989939.87299185 1397976268.8177
73	1418476 21201 37 379028 1.2 71.2 701 1420.45 2189.9713561744 1265858.816804 2320372656.2255
74	1439677 17256 37 379028 1.2 71.2 701 1411.75 1415.0481352437 989939.44407274 1397975057.0714
75	1456933 21182 37 379028 1.2 71.2 701 380.45 1130.6974792697 529024.96622095 431857048.88851
76	1478115 18050 37 379028 1.2 71.2 701 1498.4591751933 1690.0440638432 1170121.6445858 1954546031.8399
77	1496165 20106 37 379028 1.2 71.2 701 1180.45 1796.75 1086391.279133 1711950810.5661
78	1516271 17311 37 379028 1.2 71.2 701 1961.75 1965.0383670633 1375489.0525341 2698959403.772
79	1533582 21197 37 379028 1.2 71.2 701 1020.45 1796.7914495291 989317.77279353 1431487598.5775
80	1554779 18865 37 379028 1.2 71.2 701 2535.45 2790.0467536105 1921901.4155318 5272586141.0257
81	1573644 18785 37 379028 1.2 71.2 701 1173.25 1563.35 934883.66360878 1262697139.021
82	1592429 19128 37 379028 1.2 71.2 701 1244.6314305154 1679.55 1011848.4426222 1466028620.5088
83	1611557 18673 37 379028 1.2 71.2 701 1716.75 2116.75 1358357.1124992 2649835409.4518
84	1630230 17464 37 379028 1.2 71.2 701 2524.95 2528.25 1771928.7001158 4478932703.8265
85	1647694 21184 37 379028 1.2 71.2 701 1699.4987273105 2460.9 1459419.667451 3072744839.3239
86	1668878 16802 37 379028 1.2 71.2 701 874.95472295663 878.25 615342.65921024 540152654.99387
87	1685680 21180 37 379028 1.2 71.2 701 1586.3280955629 2349.55 1380092.6484589 2750630894.7806
88	1706860 20357 37 379028 1.2 71.2 701 1140.05 1552.0506309327 898080.48124008 1160939474.7558
89	1727217 17202 37 379028 1.2 71.2 701 1003.35 1173.25 772524.18934335 855431457.74818
90	1744419 17340 37 379028 1.2 71.2 701 1149.9516258691 1153.25 808116.67157924 931601966.93825
91	1761759 21190 37 379028 1.2 71.2 701 533.32759345765 1309.55 643032.77683912 624998565.18018
92	1782949 19247 37 379028 1.2 71.2 701 885.45 1392.4287315354 803302.09314979 927790174.37025
93	1802196 18568 37 379028 1.2 71.2 701 1566.65 1966.65 1242582.08739 2220888356.2519
94	1820764 19961 37 379028 1.2 71.2 701 1136.75 1484.3719698762 874897.02748467 1099855842.3492
95	1840725 17347 37 379028 1.2 71.2 701 203.35 453.25 237623.32527484 88912905.851774
96	1858072 19717 37 379028 1.2 71.2 701 29.1 695.53588847743 188889.04078366 83503821.256397
97	1877789 17794 37 379028 1.2 71.2 701 2129.95 2366.65 1523378.7562741 3314126257.6308
98	1895583 16173 37 379028 1.2 71.2 701 36.75 46.65 26581.951256633 1012896.2389187
99	1911756 21184 37 379028 1.2 71.2 701 214.75302936362 918.47992122827 381188.37590291 239795545.61801
100	1932940 17983 37 379028 1.2 71.2 701 1961.75 1965.04659037 1375495.1120626 2698983201.7964
101	1950923 21894 37 379028 1.2 71.2 701 140.45 905.01309482112 366551.29493055 224682968.64762
102	1972817 17829 37 379028 1.2 71.2 701 1693.35 1703.25 1193141.4094881 2030798839.406
103	1990646 21897 37 379028 1.2 71.2 701 703.80367363357 1395.2231209983 754323.41572255 842496250.37564
104	2012543 17816 37 379028 1.2 71.2 701 1136.75 1146.65 797715.50753145 907779855.32466
105	2030359 21890 37 379028 1.2 71.2 701 454.74209000799 1125.408165398 535759.8448315 438539958.86536
106	2052249 21081 37 379028 1.2 71.2 701 1448.9582632047 2246.65 1343461.7405648 2620278100.5107
107	2073330 17756 37 379028 1.2 71.2 701 1316.75 1395.2297091702 929546.39350765 1232870439.8926
108	2091086 16788 37 379028 1.2 71.2 701 43.35 53.25 36498.175005286 1905360.8489315
109	2107874 21890 37 379028 1.2 71.2 701 1663.6768895983 2355.2510238771 1427234.840513 2936659434.0157
110	2129764 19466 37 379028 1.2 71.2 701 586.75 854.55 448217.9595852 290523780.06976
111	2149230 19062 37 379028 1.2 71.2 701 43.35 453.25 145440.54658845 47253764.064345
112	2168292 19911 37 379028 1.2 71.2 701 916.25232506094 1404.55 805476.98035541 932369713.35048
113	2188203 19263 37 379028 1.2 71.2 701 1563.35 1963.35 1229292.5460807 2174084551.4456
114	2207466 19332 37 379028 1.2 71.2 701 324.97185152388 579.55 262539.23622707 101906351.43587
115	2226798 19150 37 379028 1.2 71.2 701 606.65 996.75 592316.8340574 515925554.62838
116	2245948 21024 37 379028 1.2 71.2 701 865.05 1627.0445041382 824711.2745926 1012430002.0175
117	2266972 17336 37 379028 1.2 71.2 701 140.45 293.25 194463.44735216 54822960.064894
118	2284308 19319 37 379028 1.2 71.2 701 49.952735190713 303.85 76006.106766454 12398988.609648
119	2303627 19285 37 379028 1.2 71.2 701 1406.65 1796.75 1126908.392485 1828926070.6168
120	2322912 19920 37 379028 1.2 71.2 701 1745.5289357645 2240.0470118615 1484043.159528 3158815168.7909
121	2342832 19007 37 379028 1.2 71.2 701 461.15 843.35 522978.92508506 400480647.66945
122	2361839 17415 37 379028 1.2 71.2 701 318.35 328.25 229248.37103228 74976228.316358
123	2379254 21887 37 379028 1.2 71.2 701 1517.281673896 2195.2089593476 1318407.1683247 2509285669.1759
124	2401141 18710 37 379028 1.2 71.2 701 2063.6237877605 2240.0405126773 1557863.5098358 3463153739.0353
125	2419851 20931 37 379028 1.2 71.2 701 941.15 1556.75 915558.29123575 1223512250.9796
126	2440782 19574 37 379028 1.2 71.2 701 874.97549819659 1128.85 652148.73341282 610446769.3962
127	2460356 19301 37 379028 1.2 71.2 701 1886.65 2276.75 1468921.5171175 3095232662.5351
128	2479657 21896 37 379028 1.2 71.2 701 2129.8767680385 2785.1581115135 1762315.9133989 4456023202.4114
129	2501553 16797 37 379028 1.2 71.2 701 1716.75 1726.65 1206047.2948801 2074976020.7903
130	2518350 19736 37 379028 1.2 71.2 701 2391.3218030307 2778.85 1789647.6582137 4573572140.587
131	2538086 19399 37 379028 1.2 71.2 701 756.75 1156.75 693381.3566772 702671201.70514
132	2557485 19018 37 379028 1.2 71.2 701 1161.15 1415.0490863811 969182.66379807 1342835458.0391
133	2576503 20386 37 379028 1.2 71.2 701 133.25 686.49802017111 239846.2918812 105947478.78502
134	2596889 19798 37 379028 1.2 71.2 701 886.15 1312.3644332036 785412.31923301 885185143.79143
135	2616687 19121 37 379028 1.2 71.2 701 453.25 853.25 442396.82506993 296610244.70592
136	2635808 19709 37 379028 1.2 71.2 701 1845.1087404422 2228.85 1404578.2695283 2818875281.4585
137	2655517 19513 37 379028 1.2 71.2 701 1716.75 2116.75 1367291.3769962 2683598470.3179
138	2675030 18071 37 379028 1.2 71.2 701 1699.9528421973 1703.25 1193647.4421624 2032517350.9275
139	2693101 21901 37 379028 1.2 71.2 701 1038.7312073622 1788.85 990702.59520498 1432548059.2886
140	2715002 19505 37 379028 1.2 71.2 701 599.97266438613 853.85 457162.4450773 301634209.89707
141	2734507 19345 37 379028 1.2 71.2 701 2046.65 2436.75 1587663.3760468 3612609251.395
142	2753852 21076 37 379028 1.2 71.2 701 2014.0763391654 2778.85 1696093.8439438 4131708950.2945
143	2774928 17259 37 379028 1.2 71.2 701 123.35 280.05 154378.10130306 37312925.77776
144	2792187 19813 37 379028 1.2 71.2 701 1711.15 2122.8292623398 1366659.3955938 2669612269.4984
145	2812000 19438 37 379028 1.2 71.2 701 2046.65 2446.65 1594427.9635137 3643804676.9444
146	2831438 19062 37 379028 1.2 71.2 701 2560.0371922917 2810.2 1936302.4700263 5350737809.6636
147	2850500 20582 37 379028 1.2 71.2 701 1563.35 2123.35 1332004.5923853 2556209358.1107
148	2871082 19839 37 379028 1.2 71.2 701 1436.15 1917.2179311118 1179721.8216877 1991676068.9348
149	2890921 19380 37 379028 1.2 71.2 701 1173.25 1573.25 955474.34760154 1320270419.6722
150	2910301 18127 37 379028 1.2 71.2 701 2799.9715457938 2810.2 1964808.4226109 5507093832.3298
151	2928428 21846 37 379028 1.2 71.2 701 1712.4453537547 2436.75 1458168.2472971 3065261480.2301
152	2950274 17592 37 379028 1.2 71.2 701 586.75 590.02596166878 411639.02293138 241722003.59311
153	2967866 21891 37 379028 1.2 71.2 701 781.15 1535.8104782077 811997.58146769 973087027.12564
154	2989757 19860 37 379028 1.2 71.2 701 1136.75 1620.6504507503 884943.69838121 1133842986.4826
155	3009617 19361 37 379028 1.2 71.2 701 934.80524616939 1253.25 814269.72814707 954767404.18265
156	3028978 16929 37 379028 1.2 71.2 701 36.75 46.65 26624.239156553 1016222.2547272
157	3045907 21886 37 379028 1.2 71.2 701 134.76853868319 816.19314548015 314237.66582096 170641044.20328
158	3067793 19858 37 379028 1.2 71.2 701 2536.15 2803.25 1925966.6650016 5295470269.9293
159	3087651 19517 37 379028 1.2 71.2 701 1476.75 1886.65 1192993.9864811 2048537690.5695
160	3107168 17879 37 379028 1.2 71.2 701 36.75 203.39877201549 36514.330043458 2831456.3564903
161	3125047 20959 37 379028 1.2 71.2 701 301.15 933.25 467922.83831965 340925110.41812
162	3146006 19820 37 379028 1.2 71.2 701 2054.424179886 2503.85 1587259.4491067 3599583321.0388
163	3165826 19429 37 379028 1.2 71.2 701 2036.75 2436.75 1579877.9033304 3578285494.8379
164	3185255 20143 37 379028 1.2 71.2 701 1764.1003472688 2246.65 1469284.9737 3096880446.6111
165	3205398 18793 37 379028 1.2 71.2 701 2214.8352128137 2440.05 1672526.5106006 3994571161.1748
166	3224191 17731 37 379028 1.2 71.2 701 318.35 409.49264313701 232410.669104 77224233.609485
167	3241922 21306 37 379028 1.2 71.2 701 1573.25 2115.1733910152 1286045.615351 2382500742.8394
168	3263228 17587 37 379028 1.2 71.2 701 861.75 865.04564339621 604416.93075182 521141614.4204
169	3280815 21888 37 379028 1.2 71.2 701 141.15 882.85721320735 358925.40644828 215554695.66107
170	3302703 19419 37 379028 1.2 71.2 701 586.75 940.37637492252 469888.89946841 323814082.70102
171	3322122 19690 37 379028 1.2 71.2 701 701.15 1093.25 688649.39054816 688105684.89097
172	3341812 19817 37 379028 1.2 71.2 701 2060.1101966297 2503.85 1588202.4206179 3603785918.2395
173	3361629 19395 37 379028 1.2 71.2 701 1876.75 2276.75 1468408.3701393 3093558477.7689
174	3381024 18251 37 379028 1.2 71.2 701 49.961929695611 263.19648464737 53227.723594341 5940656.397953
175	3399275 20665 37 379028 1.2 71.2 701 1886.65 2460.2 1480543.5790067 3152246215.9515
176	3419940 18029 37 379028 1.2 71.2 701 2786.75 2790.046933328 1953823.2671967 5445685850.0699
177	3437969 21894 37 379028 1.2 71.2 701 1021.15 1727.4551341664 964644.82821234 1356867683.7008
178	3459863 19642 37 379028 1.2 71.2 701 1887.9778085803 2228.85 1405107.493333 2821026979.1548
179	3479505 19598 37 379028 1.2 71.2 701 1083.35 1483.35 865377.42701753 1083865945.552
180	3499103 16925 37 379028 1.2 71.2 701 43.35 53.25 36500.293586139 1905336.8547377
181	3516028 21896 37 379028 1.2 71.2 701 779.9145130579 1475.1715094458 808151.73958723 962969573.36438
182	3537924 19641 37 379028 1.2 71.2 701 1411.75 1678.85 1025182.7882171 1503341664.0401
183	3557565 19724 37 379028 1.2 71.2 701 1163.35 1569.95 921815.12858331 1227945722.6508
184	3577289 19830 37 379028 1.2 71.2 701 1161.15 1428.25 963666.0392797 1328585544.153
185	3597119 19556 37 379028 1.2 71.2 701 1556.75 1966.65 1254628.8197983 2263326369.071
186	3616675 19850 37 379028 1.2 71.2 701 1787.4768133761 2228.85 1390665.0373044 2764462837.112
187	3636525 19213 37 379028 1.2 71.2 701 683.35 1083.35 605302.47668108 540315474.10521
188	3655738 17373 37 378463 1.2 71.1 700 593.35 603.25 421412.59353315 253703052.914
189	3673111 21856 37 378463 1.2 71.1 700 1681.2008321077 2355.2322649549 1431317.9562638 2955999375.602
190	3694967 19649 37 378463 1.2 71.1 700 2153.1355296055 2503.85 1594459.9974548 3636497814.8025
191	3714616 19240 37 378463 1.2 71.1 700 123.35 523.35 194496.03748341 69929438.836275
192	3733856 17909 37 378463 1.2 71.1 700 311.75 414.7976025805 223307.62375142 71489532.540604
193	3751765 21341 37 378463 1.2 71.1 700 381.15 1009.95 510527.89554319 398656960.35832
194	3773106 18531 37 378463 1.2 71.1 700 2084.7957951164 2246.65 1557432.7885836 3465965576.2856
195	3791637 20790 37 378463 1.2 71.1 700 134.85788009304 683.35 305010.91817997 157926304.62077
196	3812427 17525 37 378463 1.2 71.1 700 324.95916369195 328.25 229454.36851054 75213912.597172
197	3829952 21867 37 378463 1.2 71.1 700 954.765988898 1708.85 933045.6349967 1276285859.8935
198	3851819 19620 37 378463 1.2 71.1 700 1149.9873453787 1492.0646375977 861431.69578918 1068257515.7343
199	3871439 19271 37 378463 1.2 71.1 700 369.95 748.85 332958.05637136 169061612.14776
200	3890710 17952 37 378463 1.2 71.1 700 2799.958047748 2803.25 1961977.527252 5499080310.6409
201	3908662 21870 37 378463 1.2 71.1 700 1004.2440924997 1708.85 948692.45870755 1314967777.4478
202	3930532 19654 37 378463 1.2 71.1 700 2418.9621435528 2778.85 1790927.3652077 4586325611.0621
203	3950186 19546 37 378463 1.2 71.1 700 1316.75 1716.75 1090501.073766 1714980413.0238
204	3969732 21853 37 378463 1.2 71.1 700 837.70798594473 1678.85 876562.50287075 1139249973.4473
205	3991585 16915 37 378463 1.2 71.1 700 2036.75 2043.35 1426690.6009728 2907782469.9073
206	4008500 19395 37 378463 1.2 71.1 700 49.951279641369 541.01619275504 120732.10634388 37648015.083504
207	4027895 18667 37 378463 1.2 71.1 700 49.95 428.85 102111.76944071 25074015.970374
208	4046562 18129 37 378463 1.2 71.1 700 2786.75 2810.2 1951459.6380117 5440285421.0287
209	4064691 21800 37 378463 1.2 71.1 700 203.35 919.11215873171 388444.00011604 247148711.40694
210	4086491 21431 37 378463 1.2 71.1 700 2110.0656505017 2796.65 1738469.0480132 4349265252.053
211	4107922 17329 37 378463 1.2 71.1 700 1396.75 1468.85 981006.77438771 1374931746.1291
212	4125251 19802 37 378463 1.2 71.1 700 1436.15 1690.0445838879 1143044.6884785 1870427032.5375
213	4145053 19082 37 378463 1.2 71.1 700 693.25 1083.35 615124.2219897 557801397.62303
214	4164135 21849 37 378463 1.2 71.1 700 1359.3139762849 2228.85 1251964.1215364 2283350219.5014
215	4185984 16910 37 378463 1.2 71.1 700 2196.75 2200.05 1538435.9513218 3381123204.4872
216	4202894 17906 37 378463 1.2 71.1 700 1961.75 1971.65 1374036.8630687 2697115155.2519
217	4220800 21852 37 378463 1.2 71.1 700 54.848102825206 746.1473562986 261287.08725454 128151629.6898
218	4242652 17560 37 378463 1.2 71.1 700 586.75 590.04615799271 411056.77986066 241383036.05378
219	4260212 21859 37 378463 1.2 71.1 700 141.15 898.98059165297 363539.11077133 221639980.00946
220	4282071 19718 37 378463 1.2 71.1 700 1835.3405069967 2228.85 1401243.9821801 2809668151.8335
221	4301789 19465 37 378463 1.2 71.1 700 1956.75 2356.75 1531640.3411823 3368229096.4253
222	4321254 17882 37 378463 1.2 71.1 700 2511.75 2521.65 1759097.1886035 4420609338.7892
223	4339136 21850 37 378463 1.2 71.1 700 214.81207969654 873.52209932853 363742.66448762 217103116.1831
224	4360986 19040 37 378463 1.2 71.1 700 1961.75 2228.85 1397686.2720507 2794183048.2398
225	4380026 20317 37 378463 1.2 71.1 700 283.35 835.10540391979 341509.12055722 190160817.10626
226	4400343 19238 37 378463 1.2 71.1 700 49.95460219784 303.85 72453.443824834 11067634.663198
227	4419581 18963 37 378463 1.2 71.1 700 366.65 756.75 406024.04168932 252481201.5885
228	4438544 17918 37 378463 1.2 71.1 700 1136.75 1146.65 796598.49774968 906532283.9464
229	4456462 21853 37 378463 1.2 71.1 700 374.78369718178 1024.9668036449 472571.63982517 345925357.77455
230	4478315 18045 37 378463 1.2 71.1 700 1961.75 1965.0404486161 1373551.9287447 2695207629.1873
231	4496360 21867 37 378463 1.2 71.1 700 861.15 1605.0347518975 862649.3592005 1095019757.3185
232	4518227 19790 37 378463 1.2 71.1 700 2333.7412856322 2778.85 1778128.5034871 4522253511.3267
233	4538017 19278 37 378463 1.2 71.1 700 676.75 1076.75 626316.41346345 577952370.94679
234	4557295 20229 37 378463 1.2 71.1 700 336.15 907.2667442572 433711.01657108 281457842.89227
235	4577524 18589 37 378463 1.2 71.1 700 1969.95 2206.65 1457841.8436597 3043413648.8044
236	4596113 19810 37 378463 1.2 71.1 700 1711.15 1965.0171798543 1334682.405197 2548873125.3853
237	4615923 18915 37 378463 1.2 71.1 700 373.25 763.35 392185.15926347 237077938.85729
238	4634838 19845 37 378463 1.2 71.1 700 2319.9985013203 2778.85 1770949.6257832 4486313906.4489
239	4654683 19334 37 378463 1.2 71.1 700 1723.35 2123.35 1335798.6476142 2566956703.4943
240	4674017 19769 37 378463 1.2 71.1 700 886.15 1140.0326660603 760728.13710219 830267648.01278
241	4693786 18961 37 378463 1.2 71.1 700 533.25 923.35 495405.78043705 367525139.35267
242	4712747 19728 37 378463 1.2 71.1 700 61.15 453.90237338926 202734.87152894 64455348.296037
243	4732475 19044 37 378463 1.2 71.1 700 1253.25 1566.65 1006840.0858176 1459429019.1087
244	4751519 18125 37 378463 1.2 71.1 700 318.35 484.63329495306 238391.20870145 82065585.691309
245	4769644 20794 37 378463 1.2 71.1 700 846.65 1395.1936987819 766363.4664323 864103212.52753
246	4790438 20589 37 378463 1.2 71.1 700 1368.9414811006 1703.25 1118822.573761 1795824729.358
247	4811027 18617 37 378463 1.2 71.1 700 1636.75 1886.65 1225576.4652119 2153949300.335
248	4829644 19723 37 378463 1.2 71.1 700 2539.5 2790.0133924667 1917052.1061404 5253630017.9333
249	4849367 19209 37 378463 1.2 71.1 700 933.25 1323.35 782013.76222281 890471736.56104
250	4868576 19421 37 378463 1.2 71.1 700 64.5 499.65022899711 210250.46913572 68029212.737717
251	4887997 19558 37 378463 1.2 71.1 700 1013.25 1413.25 837123.37893639 1018243119.2825
252	4907555 20368 37 378463 1.2 71.1 700 339.5 952.49541376699 443123.77492979 295851398.63008
253	4927923 18505 37 378463 1.2 71.1 700 1813.25 2053.25 1363280.4856616 2662574456.0717
254	4946428 20064 37 378463 1.2 71.1 700 33.15 582.85582826527 149064.82549057 54977761.304241
255	4966492 18683 37 378463 1.2 71.1 700 1093.25 1333.25 897247.64689723 1154428247.4218
256	4985175 18125 37 378463 1.2 71.1 700 1411.75 1415.030359513 988576.04234333 1396118655.9373
257	5003300 21853 37 378463 1.2 71.1 700 1032.95 1688.0307694539 953625.25789399 1323904298.0907
258	5025153 19556 37 378463 1.2 71.1 700 1136.75 1389.8 824371.85043946 973910400.44261
259	5044709 19520 37 378463 1.2 71.1 700 43.35 453.25 149769.11451792 48142475.675675
260	5064229 20861 37 378463 1.2 71.1 700 2210.1920481857 2806.35 1814599.456051 4731576656.9219
261	5085090 18596 37 378463 1.2 71.1 700 923.35 1080.05 732170.92125675 767825593.61831
262	5103686 19522 37 378463 1.2 71.1 700 2429.4654946026 2764.8 1779980.0721325 4529765543.7936
263	5123208 19588 37 378463 1.2 71.1 700 283.35 683.35 313706.20250552 156019667.52956
264	5142796 19572 37 378463 1.2 71.1 700 2139.4326985296 2489.8 1585640.5018512 3595432236.8445
265	5162368 19611 37 378463 1.2 71.1 700 843.35 1243.35 708512.33920637 732981250.35393
266	5181979 18135 37 378463 1.2 71.1 700 2236.75 2240.0453700815 1566073.5798011 3503695600.6518
267	5200114 21864 37 378463 1.2 71.1 700 635.2 1270.145286529 668111.53775759 661065110.25409
268	5221978 18145 37 378463 1.2 71.1 700 1136.75 1140.0358924826 796077.29105872 905342175.31552
269	5240123 21870 37 378463 1.2 71.1 700 555.2 1203.6291032627 615506.76664605 565616701.43379
270	5261993 21889 175 379028 1.3 71.2 700 5.9077596010269 10.660906949165 7218.2261521918 75021.437354597
271	5283882 21897 175 379028 1.3 71.2 700 5.7588576392478 13.515879192975 8255.2893415811 101210.81749515
272	5305779 21854 175 379028 1.3 71.2 700 5.7539986292064 13.745629571153 8770.4276566539 113187.72194374
273	5327633 21890 175 379028 1.3 71.2 700 5.7399691018672 12.248179308094 7268.061776255 78493.534281415
274	5349523 21904 175 379028 1.3 71.2 700 5.7512378658549 16.462164644782 8947.9409415573 123008.57808681
275	5371427 21896 175 379028 1.3 71.2 700 5.7475388695232 11.411604204425 7353.1982465719 78890.377387906
276	5393323 21839 175 379028 1.3 71.2 700 5.7847693710042 13.686634753233 7659.1656621384 88291.506276864
277	5415162 21913 175 379028 1.3 71.2 700 5.8054708328866 12.496887521436 7414.8728942403 81654.313471099
278	5437075 21864 175 379028 1.3 71.2 700 5.058732762438 13.549396700746 7933.8206405174 94223.714689181
279	5458939 21885 175 379028 1.3 71.2 700 5.7814444923491 13.78784795148 8356.4574814363 103931.87876987
280	5480824 21909 175 379028 1.3 71.2 700 5.9107897337678 14.159323624732 7729.8970591805 90227.382952001
281	5502733 21901 175 379028 1.3 71.2 700 5.7489798269838 12.99319134378 8045.7038192129 95718.392741809
282	5524634 21898 175 379028 1.3 71.2 700 5.8487041327833 12.710599510463 7910.0595810322 92282.771157802
283	5546532 21891 175 379028 1.3 71.2 700 5.7340168898665 12.054453907434 7654.9406526087 85892.126600856
284	5568423 21858 175 379028 1.3 71.2 700 5.773528217469 14.838120212476 8749.9513078989 114998.13237371
285	5590281 21902 175 379028 1.3 71.2 700 5.7446342704306 10.420833302695 6847.2381341908 67964.790615004
286	5612183 21848 175 379028 1.3 71.2 700 5.8050579459921 15.1672077639 8841.9895578197 117826.07428503
287	5634031 21871 175 379028 1.3 71.2 700 5.8627389297561 10.698840110088 7019.7681000329 71454.585600097
288	5655902 21861 175 379028 1.3 71.2 700 5.8799993912849 15.343209125249 8905.9532578422 119720.37681451
289	5677763 21893 175 379028 1.3 71.2 700 5.8567179521547 16.676519515751 7836.9060038094 94090.734896392
290	5699656 21886 175 379028 1.3 71.2 700 5.771848562719 14.591955873319 8651.3019417167 112236.86413508
291	5721542 21883 175 379028 1.3 71.2 700 5.7721276554707 13.25751233407 8302.8887904949 101720.57721082
292	5743425 21857 175 379028 1.3 71.2 700 5.8707623317941 14.497973429852 8636.9378658834 111679.00668247
293	5765282 21877 175 379028 1.3 71.2 700 5.956512742292 14.833487012122 8244.2628319404 102905.78185616
294	5787159 21869 175 379028 1.3 71.2 700 5.7646307390646 14.024802500981 7636.5110274817 88194.036517894
295	5809028 21874 175 379028 1.3 71.2 700 5.9155050854098 14.88259344165 9316.3741994204 128560.18672897
296	5830902 21911 175 379028 1.3 71.2 700 5.7376967730962 13.109529751531 7510.8589882298 84434.002592513
297	5852813 21906 175 379028 1.3 71.2 700 5.7994659810487 14.322747591408 9024.8268973742 120372.20983158
298	5874719 21898 175 379028 1.3 71.2 700 5.7324228670766 17.030190047829 7750.3357106823 91988.104001669
299	5896617 21892 175 379028 1.3 71.2 700 5.7658929607412 14.429078581929 7731.6877148947 89827.708053735
300	5918509 21907 175 379028 1.3 71.2 700 5.7576696819419 12.364420037205 7322.36051289 79733.485774802
301	5940416 21900 175 379028 1.3 71.2 700 5.8243707706103 17.040925512062 9781.5821126275 145738.58781313
302	5962316 21890 175 379028 1.3 71.2 700 5.7788364202915 14.526034564506 8615.8192584938 111265.16299789
303	5984206 21868 175 379028 1.3 71.2 700 5.7289004807542 15.64216247382 7752.9673743586 91591.922937303
304	6006074 21881 175 379028 1.3 71.2 700 5.7795621117345 14.954504756598 7705.1901017832 90315.276844895
305	6027955 21888 175 379028 1.3 71.2 700 5.7428226193564 14.947997454218 8196.460877909 102130.18486435
306	6049843 21894 175 379028 1.3 71.2 700 5.7826437618587 14.249630583223 7730.521461734 90454.660236001
307	6071737 21885 175 379028 1.3 71.2 700 5.9198726001183 12.852749091966 7544.0943975531 84757.237531333
308	6093622 21886 175 379028 1.3 71.2 700 5.7314413262575 14.354555343772 8070.6398531228 98380.821593907
309	6115508 21879 175 379028 1.3 71.2 700 5.7309971500695 16.542150662735 7800.854227127 93312.910239155
310	6137387 21887 175 379028 1.3 71.2 700 5.809247737391 12.582781121861 7579.1404168698 85037.175947927
311	6159274 21864 175 379028 1.3 71.2 700 5.7743748020007 13.330462479112 8181.0024416889 99243.116376718
312	6181138 21861 175 379028 1.3 71.2 700 5.7268273913204 14.059018734973 7660.0434792571 88636.772562379
313	6202999 21896 175 379028 1.3 71.2 700 5.7492779569973 13.789528394752 7669.6924313746 88574.758705599
314	6224895 21878 175 379028 1.3 71.2 700 5.7649118017582 12.754589166038 8250.4976769449 99571.13450514
315	6246773 21893 175 379028 1.3 71.2 700 5.7271343909616 16.595014392692 7799.9191090529 93169.149298391
316	6268666 21871 175 379028 1.3 71.2 700 5.7382637623493 15.559536611062 8899.4366789409 120020.72987047
[...]
559	21193041 11162 379499 580517 71.3 108.1 369 -4 2.4 0.086489533530756 1481.1782099931
560	21204203 10631 379499 580517 71.3 108.1 369 0.973 9.5283624278596 1307.7826271033 6869.7395277103
561	21214834 10590 379499 580517 71.3 108.1 369 -4 2.4 17.498641585998 2130.1798513572
562	21225424 10626 379499 580517 71.3 108.1 369 0.973 9.2888347899168 1475.9138762517 8226.8116348714
563	21236050 10403 379499 580517 71.3 108.1 369 -4 2.4 -43.249331632125 2375.1758024109
564	21246453 10557 379499 580517 71.3 108.1 369 0.973 10.125415716859 1487.0787745311 8586.8226251172
565	21257010 11176 379499 580517 71.3 108.1 369 -4 2.4 -49.840412205604 1433.9852502044
566	21268186 10565 379499 580517 71.3 108.1 369 0.973 9.8389058281665 1174.0104065764 5617.5672845372
567	21278751 10395 379499 580517 71.3 108.1 369 -4 2.4 -30.836131033747 2358.6312656745
568	21289146 10572 379499 580517 71.3 108.1 369 0.973 9.8200343779237 1496.2655961972 8483.2473275953
569	21299718 11735 379499 580517 71.3 108.1 369 -4 2.4 -0.65077462954439 772.92977829706
570	21311453 10412 379499 580517 71.3 108.1 369 0.973 7.9026213923574 966.4048596023 3696.992874235
571	21321865 12105 379499 580517 71.3 108.1 369 -4 2.4 -0.022771059740289 383.88437241329
572	21333970 10459 379499 580517 71.3 108.1 369 0.973 7.4327137518779 803.82002340528 2457.9413639323
573	21344429 10609 379499 580517 71.3 108.1 369 -4 2.4 0.42092754839016 2244.6509223575
574	21355038 10640 379499 580517 71.3 108.1 369 0.973 9.6528466397107 1498.259810282 8528.3943935719
575	21365678 12084 379499 580517 71.3 108.1 369 -4 2.4 0.23310487487355 423.26445448063
576	21377762 10570 379499 580517 71.3 108.1 369 0.973 7.5245397752198 854.95860634609 2789.4022406056
577	21388332 10496 379499 580517 71.3 108.1 369 -4 2.4 -39.903486063557 2249.6554916971
578	21398828 10525 379499 580517 71.3 108.1 369 0.973 9.9254890428753 1423.8618862641 7823.5560447107
579	21409353 11209 379499 580517 71.3 108.1 369 -4 2.4 1.1750654190036 1444.3658536574
580	21420562 10721 379499 580517 71.3 108.1 369 0.973 9.6973119792231 1270.7224912232 6438.8325793859
581	21431283 11097 379499 580517 71.3 108.1 369 -4 2.4 -26.749386904337 1597.7519822632
582	21442380 10502 379499 580517 71.3 108.1 369 0.973 8.397718800739 1180.6755236269 5442.2579427713
583	21452882 11531 379499 580517 71.3 108.1 369 -4 2.4 -0.38305899524117 1006.3123470393
584	21464413 10553 379499 580517 71.3 108.1 369 0.973 7.7878444211331 999.5611373585 3998.9849046198
585	21474966 10998 379499 580517 71.3 108.1 369 -4 2.4 89.509449377573 1840.289285892
586	21485964 10834 379499 580517 71.3 108.1 369 0.973 10.536760651687 1624.1779477023 9867.390421536
587	21496798 11593 379499 580517 71.3 108.1 369 -4 2.4 -0.098676397707209 1034.8413964316
588	21508391 10521 379499 580517 71.3 108.1 369 0.973 7.7535785267645 1009.4888237114 4078.7053865728
589	21518912 10766 379499 580517 71.3 108.1 369 -4 2.4 -44.295686056839 1938.8489267577
590	21529678 10579 379499 580517 71.3 108.1 369 0.973 9.5150171090227 1327.58680929 6970.531473034
591	21540257 10494 379028 580517 71.2 108.1 370 -4 2.4 -62.793304656927 2230.0404356716
592	21550751 10543 379028 580517 71.2 108.1 370 0.973 9.9895516054669 1406.3407848625 7680.2952981678
593	21561294 10698 379028 580517 71.2 108.1 370 -4 2.4 -0.58063172369234 2071.9119722889
594	21571992 10638 379028 580517 71.2 108.1 370 0.973 8.9278875147171 1394.6594712156 7471.2726496668
595	21582630 11553 379028 580517 71.2 108.1 370 -4 2.4 -0.30865052254858 1050.4733685972
596	21594183 10617 379028 580517 71.2 108.1 370 0.973 8.2403818034733 1033.298534528 4186.6101912087
597	21604800 11201 379028 580517 71.2 108.1 370 -4 2.4 -34.100551571154 1578.3905381731
598	21616001 10479 379028 580517 71.2 108.1 370 0.973 8.6621352075229 1188.5374345567 5684.7810650152
599	21626480 11352 379028 580517 71.2 108.1 370 -4 2.4 0.60220914459805 1293.8231773643
600	21637832 10642 379028 580517 71.2 108.1 370 0.973 8.8202263415585 1175.8014464439 5547.1992525071
601	21648474 10483 379028 580517 71.2 108.1 370 -4 2.4 22.09023086923 2379.7156203466
602	21658957 10674 379028 580517 71.2 108.1 370 0.973 9.5829320127285 1620.8668344003 9789.8483805933
603	21669631 12093 379028 580517 71.2 108.1 370 -4 2.4 -0.4841644680686 408.14639274561
604	21681724 10571 379028 580517 71.2 108.1 370 0.973 8.1065793874654 833.69103725908 2642.9357465489
605	21692295 11178 379028 580517 71.2 108.1 370 -4 2.4 -27.48716367905 1571.984684688
606	21703473 10543 379028 580517 71.2 108.1 370 0.973 8.4283723517801 1172.0292150792 5415.6266998648
607	21714016 11273 379028 580517 71.2 108.1 370 -4 2.4 -36.999652762313 1331.3471306716
608	21725289 10586 379028 580517 71.2 108.1 370 0.973 8.3018508047607 1070.0671752751 4544.56362853
611	21735875 11467 379028 580517 71.2 108.1 370 -4 2.4 0.23236104045082 1204.336824969
612	21747342 10669 379028 580517 71.2 108.1 370 0.973 10.469497352181 1289.6324490222 6775.3360740653
613	21758011 10624 379028 580517 71.2 108.1 370 -4 2.4 -20.136439850298 2191.1354382962
614	21768635 10605 379028 580517 71.2 108.1 370 0.973 9.7366307842879 1457.1781119169 8085.046174843
615	21779240 11939 379028 580517 71.2 108.1 370 -4 2.4 -50.620713353803 608.09351060258
616	21791179 10437 379028 580517 71.2 108.1 370 0.973 7.4813350582945 845.63230015787 2661.2556727211
617	21801616 10281 379028 580517 71.2 108.1 370 -4 2.4 -1.8114459357845 2578.3102682134
618	21811897 10652 379028 580517 71.2 108.1 370 0.973 10.376988982652 1671.6100973984 10386.232637795
619	21822549 12047 379028 580517 71.2 108.1 370 -4 2.4 -0.264538663309 514.57836405717
620	21834596 10749 379028 580517 71.2 108.1 370 0.973 8.3495437038663 958.19357845736 3536.5990952686
621	21845345 10228 379028 580517 71.2 108.1 370 -4 2.4 16.74371730852 2668.3475152456
622	21855573 10672 379028 580517 71.2 108.1 370 0.973 10.442044857739 1761.4293410291 11405.422047877
623	21866245 10608 379028 580517 71.2 108.1 370 -4 2.4 24.81382231905 2547.064376491
624	21876853 10723 379028 580517 71.2 108.1 370 0.973 10.241485600994 1731.8689020021 10838.965190117
625	21887576 11027 379028 580517 71.2 108.1 370 -4 2.4 0.3094098070825 1618.5347693951
626	21898603 10663 379028 580517 71.2 108.1 370 0.973 8.8673506824265 1249.969940043 6052.5536448635
627	21909266 10837 379028 580517 71.2 108.1 370 -4 2.4 -15.629938160257 1831.989386261
628	21920103 10605 379028 580517 71.2 108.1 370 0.973 8.499783265558 1266.5475048171 6165.779073517
629	21930708 10163 379028 580517 71.2 108.1 370 -4 2.4 -5.2058208094729 2724.1258216152
630	21940871 10619 379028 580517 71.2 108.1 370 0.973 10.593983005861 1744.4321234229 11405.927955136
631	21951490 10920 379028 580517 71.2 108.1 370 -4 2.4 -0.60925122887804 1792.0314660384
632	21962410 10707 379028 580517 71.2 108.1 370 0.973 9.4022800964321 1351.8498641155 7093.622659924
633	21973117 10205 379028 580517 71.2 108.1 370 -4 2.4 -14.329664101916 2578.7439174384
634	21983322 10630 379028 580517 71.2 108.1 370 0.973 9.8480213297958 1639.9803934426 10040.016322244
635	21993952 11022 379028 580517 71.2 108.1 370 -4 2.4 -45.584620410305 1639.927698526
636	22004974 10563 379028 580517 71.2 108.1 370 0.973 9.5079423071598 1257.0837434307 6364.7965395118
637	22015537 10465 379028 580517 71.2 108.1 370 -4 2.4 -28.264043168118 2305.8434772186
638	22026002 10609 379028 580517 71.2 108.1 370 0.973 9.3515971331726 1481.4721720223 8370.8063459926
639	22036611 12022 379028 580517 71.2 108.1 370 -4 2.4 0.11482512376278 543.64157656667
640	22048633 10725 379028 580517 71.2 108.1 370 0.973 9.4221516567812 990.19459187037 3809.6085427721
641	22059358 10274 379028 580517 71.2 108.1 370 -4 2.4 -0.30019285935044 2621.1537712221
642	22069632 10643 379028 580517 71.2 108.1 370 0.973 10.537655560756 1700.855635897 10640.494828384
643	22080275 10423 379028 580517 71.2 108.1 370 -4 2.4 -42.288744004406 2427.8659287812
644	22090698 10597 379028 580517 71.2 108.1 370 0.973 9.5494941767379 1510.7848050612 8707.1612234699
645	22101295 10717 379028 580517 71.2 108.1 370 -4 2.4 -65.888102939738 1983.0841600988
646	22112012 10540 379028 580517 71.2 108.1 370 0.973 8.7192134859622 1295.4592081663 6648.8406974963
647	22122552 12145 379028 580517 71.2 108.1 370 -4 2.4 -0.022580809872586 363.26759697476
648	22134697 10501 379028 580517 71.2 108.1 370 0.973 6.9135731161473 805.82678106726 2421.1233320231
649	22145198 11311 379028 580517 71.2 108.1 370 -4 2.4 -0.58951925947316 1328.0379614894
650	22156509 10696 379028 580517 71.2 108.1 370 0.973 9.2031371826792 1202.7487990427 5684.0683758183
651	22167205 11899 379028 580517 71.2 108.1 370 -4 2 -57.490125702794 724.86103386712
652	22179104 10540 379028 580517 71.2 108.1 370 0.973 8.4030918262195 971.3205479889 3621.8923352886
653	22189644 10365 379028 580517 71.2 108.1 370 -4 2 -73.216695517115 2157.2133056053
654	22200009 10695 379028 580517 71.2 108.1 370 0.973 8.0765299494224 1378.1471138311 6757.9473259004
655	22210704 10417 379028 580517 71.2 108.1 370 -4 2 -74.681990162633 2077.1263021209
656	22221121 10722 379028 580517 71.2 108.1 370 0.973 8.7349365107899 1352.0856630517 6548.9745326844
657	22231843 11565 379028 580517 71.2 108.1 370 -4 2 -45.261656637038 912.71507271873
658	22243408 10727 379028 580517 71.2 108.1 370 0.973 8.530067261398 1033.6264495445 4000.8919980901
659	22254135 11970 379028 580517 71.2 108.1 370 -4 2 62.725447510457 553.76226811923
660	22266105 10912 379028 580517 71.2 108.1 370 0.973 8.0737394727571 1069.9160071558 4240.3589660688
661	22277017 10689 379028 580517 71.2 108.1 370 -4 1.5 -50.563561836897 1600.4333072293
662	22287706 10972 379028 580517 71.2 108.1 370 0.973 6.3797667940635 1168.4350165869 4451.5497259279
663	22298678 11327 379028 580517 71.2 108.1 370 -4 1.5 -64.175578680744 1143.9355017107
664	22310005 10890 379028 580517 71.2 108.1 370 0.973 6.1142402186578 1009.7477132447 3426.3733319048
665	22320895 11795 379028 580517 71.2 108.1 370 -4 1.5 -19.391893214178 744.08495530597
666	22332690 10941 379028 580517 71.2 108.1 370 0.973 7.0980354950144 1099.9729509558 4273.3316291549
667	22343631 11370 379028 580517 71.2 108.1 370 -4 1.5 -18.267999913436 1072.3472840217
668	22355001 10901 379028 580517 71.2 108.1 370 0.973 6.3412373341993 1078.2891653976 3912.1449807073
669	22365902 11232 379028 580517 71.2 108.1 370 -4 1.5 -67.959839233818 1261.4609897662
670	22377134 10885 379028 580517 71.2 108.1 370 0.973 6.062348169627 1059.0931746132 3806.3725095574
671	22388019 11143 379028 580517 71.2 108.1 370 -4 1.5 12.751686678681 1248.2281897669
672	22399162 11125 379028 580517 71.2 108.1 370 0.973 6.1177436402194 1134.7117347272 4116.7328740438
673	22410287 10778 379028 580517 71.2 108.1 370 -4 1.5 -55.486913512782 1583.4550293646
674	22421065 11004 379028 580517 71.2 108.1 370 0.973 6.0155825807876 1158.8864398576 4406.8307448959
675	22432069 11805 379028 580517 71.2 108.1 370 1009.0152840574 1432.8116303887 452103.40633151 558012422.72528
676	22443874 9253 379028 580517 71.2 108.1 370 2196.75 2200.05 813514.89986525 1788667107.9786
677	22453127 9265 379028 580517 71.2 108.1 370 36.75 40.04042812095 13769.107643406 512730.3066757
678	22462392 11802 379028 580517 71.2 108.1 370 887.34895772627 1287.9873470043 401146.2299395 439856185.31751
679	22474194 11800 379028 580517 71.2 108.1 370 1441.3952332363 1906.7979843775 619521.05977551 1043793833.7532
680	22485994 8713 379028 580517 71.2 108.1 370 449.95 453.25 167243.94876479 75596963.79832
681	22494707 9918 379028 580517 71.2 108.1 370 248.10359506376 328.25 118586.75069069 38120810.497401
682	22504625 11361 379028 580517 71.2 108.1 370 1083.7954503385 1406.65 469989.80505166 601103367.47676
683	22515986 10418 379028 580517 71.2 108.1 370 2525.0360023557 2673.6163168157 943998.0074453 2409103436.3015
684	22526404 10836 379028 580517 71.2 108.1 370 981.16182414958 1236.75 426286.40185247 493825767.24805
685	22537240 9639 379028 580517 71.2 108.1 370 49.954431720347 141.0745699655 22887.292938317 1582266.4991516
686	22546879 11148 379028 580517 71.2 108.1 370 533.25 835.04019962173 241082.16657009 160658434.33802
687	22558027 11811 379028 580517 71.2 108.1 370 1691.6681764979 2119.3704277011 703547.20661371 1343622789.1806
688	22569838 8885 379028 580517 71.2 108.1 370 276.75 280.05 102615.41605324 28459783.17056
689	22578723 11813 379028 580517 71.2 108.1 370 1593.8743371001 2114.5419356526 685086.96245966 1276745071.4592
690	22590536 9262 379028 580517 71.2 108.1 370 1556.75 1563.2669756648 576804.22666754 899198673.40398
691	22599798 10377 379028 580517 71.2 108.1 370 674.33243983633 864.95972430031 304843.39195754 252371114.18321
692	22610175 10395 379028 580517 71.2 108.1 370 449.95 666.8891222085 189671.97112536 99053539.409945
693	22620570 10955 379028 580517 71.2 108.1 370 1587.7001788224 1866.1876589563 635266.48472397 1092184233.085
694	22631525 10120 379028 580517 71.2 108.1 370 1563.35 1720.05 611626.47063575 1012602413.9156
695	22641645 9815 379028 580517 71.2 108.1 370 2786.75 2790.0429197712 1031279.4882368 2874425704.595
696	22651460 11809 379028 580517 71.2 108.1 370 1635.8996993988 2030.8662713212 678769.97500158 1250042309.6342
697	22663269 9692 379028 580517 71.2 108.1 370 1136.75 1140.0393956457 420764.669777 478494682.00782
698	22672961 11806 379028 580517 71.2 108.1 370 1088.4492947458 1474.2100525746 474975.42443636 614318707.18856
699	22684767 11813 379028 580517 71.2 108.1 370 5.8899888455509 12.058271817764 4256.3845882187 49587.691165112
700	22696580 11795 379028 580517 71.2 108.1 370 5.8097904218619 13.976023417672 4036.316378318 46518.728554184
701	22708375 11791 379028 580517 71.2 108.1 370 6.0278732730742 13.121977745221 4670.3389321296 59653.485411424
702	22720166 11806 379028 580517 71.2 108.1 370 5.7440317328166 15.800572283487 3936.2823676018 43941.820104672
703	22731972 11808 379028 580517 71.2 108.1 370 5.758435078082 12.477053977841 4019.574416743 45236.181717787
704	22743780 11814 379028 580517 71.2 108.1 370 5.7805449344382 11.954250983773 3905.7113928576 42549.470300966
705	22755594 11810 379028 580517 71.2 108.1 370 5.8260031622904 12.549595681966 4293.2611879285 50974.778643455
706	22767404 11791 379028 580517 71.2 108.1 370 5.8764920885938 16.484836496665 5229.4975836297 77809.481607815
707	22779195 12055 379028 580517 71.2 108.1 370 -4 2.6 51.685242840189 526.78035531464
708	22791250 10882 379028 580517 71.2 108.1 370 0.973 8.7718227576567 948.1520970253 3636.8223621875
709	22802132 10506 379028 580517 71.2 108.1 370 -4 2.6 5.8846585754697 2456.5312454865
710	22812638 10505 379028 580517 71.2 108.1 370 0.973 10.486981630476 1559.509820812 9974.0400829194
711	22823143 12100 379028 580517 71.2 108.1 370 -4 2.6 0.28491986299398 484.46053763672
712	22835243 10842 379028 580517 71.2 108.1 370 0.973 9.1546188877899 911.06169373749 3281.0316545668
713	22846085 10899 379028 580517 71.2 108.1 370 -4 2.6 -47.490679157344 2437.9512424641
714	22856984 10329 379028 580517 71.2 108.1 370 0.973 10.589786472768 1489.7383151379 9532.85208207
715	22867313 11193 379028 580517 71.2 108.1 370 -4 2.6 0.11743554310642 1637.3687869211
716	22878506 10669 379028 580517 71.2 108.1 370 0.973 9.410865102148 1218.2172519995 6255.7782028096
717	22889175 11182 379028 580517 71.2 108.1 370 -4 2.6 0.36037526073865 1546.8005449084
718	22900357 10645 379028 580517 71.2 108.1 370 0.973 9.1601150107241 1156.5572297623 5669.161911311
719	22911002 11804 379028 580517 71.2 108.1 370 -4 2.4 -20.716998915808 824.36457194022
720	22922806 10638 379028 580517 71.2 108.1 370 0.973 8.7494752178514 971.67532576141 3711.9248448143
721	22933444 11388 379028 580517 71.2 108.1 370 -4 2.4 -0.18699255499968 1293.6215829736
722	22944832 10778 379028 580517 71.2 108.1 370 0.92817026754497 11.35194005292 1364.9725155434 7710.6112137102
723	22955610 11807 379028 580517 71.2 108.1 370 5.8205536562946 12.827518559493 4012.0630579394 45044.758186355
724	22967417 11743 379028 580517 71.2 108.1 370 5.8234450753181 13.540455736169 4207.2386138832 49782.897133962
725	22979160 11811 379028 580517 71.2 108.1 370 5.7928352929452 14.758405651595 3972.1069589427 45235.059255388
726	22990971 11815 379028 580517 71.2 108.1 370 5.9734570593727 13.045001608422 3878.8273881677 42326.073339207
727	23002786 11600 379028 580517 71.2 108.1 370 -4 2.6 -56.734919973076 1502.364771291
728	23014386 10603 379028 580517 71.2 108.1 370 0.973 9.5873346599863 1134.749794699 5508.2050767704
729	23024989 11385 379028 580517 71.2 108.1 370 -4 2.6 -0.67240543848133 1441.9585706588
730	23036374 10588 379028 580517 71.2 108.1 370 0.973 10.100761932902 1218.4324233339 6376.6902230773
731	23046962 10316 379028 580517 71.2 108.1 370 -4 2.4 -13.002298290871 2584.7323852696
732	23057278 10633 379028 580517 71.2 108.1 370 0.973 10.187932020119 1659.100070907 10381.493260934
733	23067911 10800 379028 580517 71.2 108.1 370 -4 2.4 -25.562783537207 1981.528951754
734	23078711 10534 379028 580517 71.2 108.1 370 0.973 9.181854382863 1354.7020428528 7184.9518671166
735	23089245 10570 379028 580517 71.2 108.1 370 2407.3685785379 2608.8738612306 929226.35445984 2334187875.0647
736	23099815 10675 379028 580517 71.2 108.1 370 2123.35 2356.75 830109.95772438 1865473760.8993
737	23110490 9760 379028 580517 71.2 108.1 370 2799.9503565894 2803.25 1037036.5456644 2906607877.0742
738	23120250 11800 379028 580517 71.2 108.1 370 1346.1835809748 1740.0774857525 571425.19477693 887269582.26145
739	23132050 11771 379028 580517 71.2 108.1 370 5.803222887719 14.113383301818 4241.1779897266 51002.036950601
740	23143821 11813 379028 580517 71.2 108.1 370 5.8505938226621 14.528144949017 3963.5563859309 44316.514607435
741	23155634 11060 379028 580517 71.2 108.1 370 -4 2.6 -0.47530190880866 1920.9520925146
742	23166694 10416 379028 580517 71.2 108.1 370 0.973 10.496622348458 1390.6774890893 8365.6080954836
743	23177110 10965 379028 580517 71.2 108.1 370 -4 2.6 23.248771464069 2401.2488996406
744	23188075 10434 379028 580517 71.2 108.1 370 0.973 10.700867609241 1612.306400007 10833.113156834
745	23198509 10887 379028 580517 71.2 108.1 370 1686.75 1945.3070406179 651252.94079301 1149087208.1169
746	23209396 10269 379028 580517 71.2 108.1 370 1480.05 1635.2998790614 561327.52935556 852447081.30842
747	23219665 11805 379028 580517 71.2 108.1 370 5.7692982407226 14.293042543295 3999.3325760743 45729.200012278
748	23231470 11428 379028 580517 71.2 108.1 370 -4 1.5 -14.041809106037 1045.0442970008
749	23242898 10998 379028 580517 71.2 108.1 370 0.973 6.8234264668662 1103.9623448301 4137.2522601952
750	23253896 4187 510563 580517 95.2 108.1 130 2261.15 2433.6536857716 305076.04760669 716266065.7092
751	23258083 3176 510563 580517 95.2 108.1 130 2446.65 2446.65 318064.5 778192508.925
752	23261259 4177 511092 580517 95.3 108.1 129 13.409564666731 13.539183049676 1738.5353007922 23430.442459466
753	23265436 4352 511743 580517 95.4 108.1 128 -1.1146596458182 1.1958848320507 0.53591253289953 32.834833279845
754	23269788 3742 511743 580517 95.4 108.1 128 0.973 5.8906221679027 287.71581601023 880.8946709609
755	23273530 3675 519372 580517 96.8 108.1 114 2638.0005343373 2778.85 308830.00652819 836826396.14428
756	23277205 2680 519372 580517 96.8 108.1 114 283.35 283.35 32301.9 9152743.365
757	23279885 3658 519817 580517 96.9 108.1 113 12.512541425811 12.642203557946 1421.0196330169 17870.045050365
758	23283543 3808 520430 580517 97 108.1 112 -1.1186534587014 1.2328916088771 -1.0809239811357 29.711431872857
759	23287351 3237 520430 580517 97 108.1 112 0.973 5.6622502751054 241.17379603417 686.7113101164
760	23290588 2275 543370 580517 101.2 108.1 70 1303.7738013156 1403.95 94826.35765313 128519716.05828
761	23292863 1736 543370 580517 101.2 108.1 70 1556.75 1556.75 108972.5 169642939.375
762	23294599 2257 543912 580517 101.3 108.1 69 14.095466426531 14.825392280316 1016.5494572977 14977.363174008
763	23296856 2325 544500 580517 101.4 108.1 68 -1.1263268787414 1.9086884132679 6.9200402724349 32.190036195165
764	23299181 2026 544500 580517 101.4 108.1 68 0.973 8.8404699017089 195.56402067538 814.33794690581

