version 2
run WeightedPPersistant-3-20200618-14:54:16-21830
attr configname WeightedPPersistant
attr datetime 20200618-14:54:16
attr experiment WeightedPPersistant
attr inifile omnetpp.ini
attr iterationvars ""
attr iterationvarsf ""
attr measurement ""
attr network FloodingNetwork
attr processid 21830
attr repetition 3
attr replication #3
attr resultdir results
attr runnumber 3
attr seedset 3
param *.node[*].applType "\"WeightedPPersistant\""
param **.debug false
param **.coreDebug false
param *.playgroundSizeX 3000m
param *.playgroundSizeY 2500m
param *.playgroundSizeZ 50m
param *.annotations.draw true
param *.obstacles.debug true
param *.obstacles.obstacles "xmldoc(\"config.xml\", \"//AnalogueModel[@type='SimpleObstacleShadowing']/obstacles\")"
param *.world.useTorus false
param *.world.use2D false
param *.manager.updateInterval 0.1s
param *.manager.host "\"localhost\""
param *.manager.port 9999
param *.manager.moduleType "\"org.car2x.veins.nodes.Car\""
param *.manager.moduleName "\"node\""
param *.manager.autoShutdown true
param *.manager.margin 25
param *.manager.launchConfig "xmldoc(\"manhattan.launchd.xml\")"
param *.vehicleInserter.numVehicles 150
param *.connectionManager.sendDirect true
param *.connectionManager.maxInterfDist 100m
param *.connectionManager.drawMaxIntfDist false
param *.**.nic.mac1609_4.useServiceChannel true
param *.**.nic.mac1609_4.txPower 20mW
param *.**.nic.mac1609_4.bitrate 6Mbps
param *.**.nic.phy80211p.minPowerLevel -110dBm
param *.**.nic.phy80211p.useNoiseFloor true
param *.**.nic.phy80211p.noiseFloor -98dBm
param *.**.nic.phy80211p.decider "xmldoc(\"config.xml\")"
param *.**.nic.phy80211p.analogueModels "xmldoc(\"config.xml\")"
param *.**.nic.phy80211p.usePropagationDelay true
param *.**.nic.phy80211p.antenna "xmldoc(\"antenna.xml\", \"/root/Antenna[@id='monopole']\")"
param *.rsu.applType "\"FloodingRSU\""
param *.rsu.appl.headerLength 80bit
param *.rsu[*].appl.debug false
param *.rsu[*].appl.headerLength "88 bit"
param *.rsu[*].appl.dataLengthBits "512 bit"
param *.rsu[*].appl.sendBeacons false
param *.rsu[*].appl.dataOnSch true
param *.rsu[*].appl.sendData true
param *.rsu.nic.phy80211p.useNoiseFloor true
param *.rsu.nic.phy80211p.noiseFloor -98dBm
param *.rsu.nic.phy80211p.minPowerLevel -110dBm
param *.rsu.nic.phy80211p.analogueModels "xmldoc(\"config.xml\")"
param *.rsu.nic.phy80211p.decider "xmldoc(\"config.xml\")"
param *.rsu.nic.phy80211p.sensitivity -89dBm
param *.rsu.nic.mac1609_4.txPower 20mW
param *.rsu.mobility.x 1420
param *.rsu.mobility.y 1250
param *.rsu.mobility.z 1.895
param *.node[*].appl.debug false
param *.node[*].appl.headerLength "88 bit"
param *.node[*].appl.dataLengthBits "512 bit"
param *.node[*].appl.sendBeacons true
param *.node[*].appl.dataOnSch true
param *.node[*].appl.sendData true
param *.node[*].appl.beaconInterval 1s
param *.node[*].appl.beaconPriority 3
param *.node[*].appl.dataPriority 2
param *.node[*].appl.maxOffset 0.005s
param *.node.appl.dataOnSch false
param *.rsu.appl.dataOnSch false
param *.node[*].veinsmobilityType.debug false
param *.node[*].veinsmobility.x 0
param *.node[*].veinsmobility.y 0
param *.node[*].veinsmobility.z 1.895

scalar FloodingNetwork.node[0].appl generatedWSMs 0
scalar FloodingNetwork.node[0].appl receivedWSMs 0
scalar FloodingNetwork.node[0].appl generatedBSMs 24
scalar FloodingNetwork.node[0].appl receivedBSMs 0
scalar FloodingNetwork.node[0].appl generatedWSAs 0
scalar FloodingNetwork.node[0].appl receivedWSAs 0
scalar FloodingNetwork.node[0].appl #duplicates 0
scalar FloodingNetwork.node[0].appl #numSent 0
scalar FloodingNetwork.node[0].nic.phy80211p busyTime 9.6451585935685e-05
scalar FloodingNetwork.node[0].nic.mac1609_4 ReceivedUnicastPackets 0
scalar FloodingNetwork.node[0].nic.mac1609_4 ReceivedBroadcasts 23
scalar FloodingNetwork.node[0].nic.mac1609_4 SentPackets 24
scalar FloodingNetwork.node[0].nic.mac1609_4 SentAcknowledgements 0
scalar FloodingNetwork.node[0].nic.mac1609_4 RetriesExceeded 0
scalar FloodingNetwork.node[0].nic.mac1609_4 SNIRLostPackets 0
scalar FloodingNetwork.node[0].nic.mac1609_4 RXTXLostPackets 0
scalar FloodingNetwork.node[0].nic.mac1609_4 TotalLostPackets 0
scalar FloodingNetwork.node[0].nic.mac1609_4 DroppedPacketsInMac 0
scalar FloodingNetwork.node[0].nic.mac1609_4 TooLittleTime 0
scalar FloodingNetwork.node[0].nic.mac1609_4 TimesIntoBackoff 24
scalar FloodingNetwork.node[0].nic.mac1609_4 SlotsBackoff 29
scalar FloodingNetwork.node[0].nic.mac1609_4 NumInternalContention 0
scalar FloodingNetwork.node[0].nic.mac1609_4 totalBusyTime 0.004912
scalar FloodingNetwork.node[0].nic.mac1609_4 retriesExceeded:count 0
attr source org_car2x_veins_modules_mac_sigRetriesExceeded
scalar FloodingNetwork.node[0].nic.mac1609_4 sentAcks:count 0
attr source org_car2x_veins_modules_mac_sigSentAck
scalar FloodingNetwork.node[0].nic.mac1609_4 sentPackets:count 24
attr source org_car2x_veins_modules_mac_sigSentPacket
scalar FloodingNetwork.node[0].nic.mac1609_4 collisions:count 0
attr source org_car2x_veins_modules_mac_sigCollision
scalar FloodingNetwork.node[0].nic.mac1609_4 channelBusy:timeavg 0.00019806446075087
attr source org_car2x_veins_modules_mac_sigChannelBusy
scalar FloodingNetwork.node[0].veinsmobility startTime 1.2
scalar FloodingNetwork.node[0].veinsmobility totalTime 24.8
scalar FloodingNetwork.node[0].veinsmobility stopTime 26.000006933997
scalar FloodingNetwork.node[0].veinsmobility minSpeed 5.7162330866039
scalar FloodingNetwork.node[0].veinsmobility maxSpeed 13.076221748268
scalar FloodingNetwork.node[0].veinsmobility totalDistance 266.85822864625
scalar FloodingNetwork.node[0].veinsmobility totalCO2Emission 99.853200143119
scalar FloodingNetwork.node[1].appl generatedWSMs 0
scalar FloodingNetwork.node[1].appl receivedWSMs 0
scalar FloodingNetwork.node[1].appl generatedBSMs 25
scalar FloodingNetwork.node[1].appl receivedBSMs 0
scalar FloodingNetwork.node[1].appl generatedWSAs 0
scalar FloodingNetwork.node[1].appl receivedWSAs 0
scalar FloodingNetwork.node[1].appl #duplicates 0
scalar FloodingNetwork.node[1].appl #numSent 0
scalar FloodingNetwork.node[1].nic.phy80211p busyTime 0
scalar FloodingNetwork.node[1].nic.mac1609_4 ReceivedUnicastPackets 0
scalar FloodingNetwork.node[1].nic.mac1609_4 ReceivedBroadcasts 0
scalar FloodingNetwork.node[1].nic.mac1609_4 SentPackets 25
scalar FloodingNetwork.node[1].nic.mac1609_4 SentAcknowledgements 0
scalar FloodingNetwork.node[1].nic.mac1609_4 RetriesExceeded 0
scalar FloodingNetwork.node[1].nic.mac1609_4 SNIRLostPackets 0
scalar FloodingNetwork.node[1].nic.mac1609_4 RXTXLostPackets 0
scalar FloodingNetwork.node[1].nic.mac1609_4 TotalLostPackets 0
scalar FloodingNetwork.node[1].nic.mac1609_4 DroppedPacketsInMac 0
scalar FloodingNetwork.node[1].nic.mac1609_4 TooLittleTime 0
scalar FloodingNetwork.node[1].nic.mac1609_4 TimesIntoBackoff 25
scalar FloodingNetwork.node[1].nic.mac1609_4 SlotsBackoff 37
scalar FloodingNetwork.node[1].nic.mac1609_4 NumInternalContention 0
scalar FloodingNetwork.node[1].nic.mac1609_4 totalBusyTime 0.002625
scalar FloodingNetwork.node[1].nic.mac1609_4 retriesExceeded:count 0
attr source org_car2x_veins_modules_mac_sigRetriesExceeded
scalar FloodingNetwork.node[1].nic.mac1609_4 sentAcks:count 0
attr source org_car2x_veins_modules_mac_sigSentAck
scalar FloodingNetwork.node[1].nic.mac1609_4 sentPackets:count 25
attr source org_car2x_veins_modules_mac_sigSentPacket
scalar FloodingNetwork.node[1].nic.mac1609_4 collisions:count 0
attr source org_car2x_veins_modules_mac_sigCollision
scalar FloodingNetwork.node[1].nic.mac1609_4 channelBusy:timeavg 0.00010584674459915
attr source org_car2x_veins_modules_mac_sigChannelBusy
scalar FloodingNetwork.node[1].veinsmobility startTime 1.2
scalar FloodingNetwork.node[1].veinsmobility totalTime 24.8
scalar FloodingNetwork.node[1].veinsmobility stopTime 26.000006933997
scalar FloodingNetwork.node[1].veinsmobility minSpeed 5.7675446976136
scalar FloodingNetwork.node[1].veinsmobility maxSpeed 14.692553439496
scalar FloodingNetwork.node[1].veinsmobility totalDistance 282.63886992524
scalar FloodingNetwork.node[1].veinsmobility totalCO2Emission 103.81673673199
scalar FloodingNetwork.node[2].appl generatedWSMs 0
scalar FloodingNetwork.node[2].appl receivedWSMs 0
scalar FloodingNetwork.node[2].appl generatedBSMs 25
scalar FloodingNetwork.node[2].appl receivedBSMs 0
scalar FloodingNetwork.node[2].appl generatedWSAs 0
scalar FloodingNetwork.node[2].appl receivedWSAs 0
scalar FloodingNetwork.node[2].appl #duplicates 0
scalar FloodingNetwork.node[2].appl #numSent 0
scalar FloodingNetwork.node[2].nic.phy80211p busyTime 1.2580641643785e-05
scalar FloodingNetwork.node[2].nic.mac1609_4 ReceivedUnicastPackets 0
scalar FloodingNetwork.node[2].nic.mac1609_4 ReceivedBroadcasts 1
scalar FloodingNetwork.node[2].nic.mac1609_4 SentPackets 25
scalar FloodingNetwork.node[2].nic.mac1609_4 SentAcknowledgements 0
scalar FloodingNetwork.node[2].nic.mac1609_4 RetriesExceeded 0
scalar FloodingNetwork.node[2].nic.mac1609_4 SNIRLostPackets 2
scalar FloodingNetwork.node[2].nic.mac1609_4 RXTXLostPackets 0
scalar FloodingNetwork.node[2].nic.mac1609_4 TotalLostPackets 2
scalar FloodingNetwork.node[2].nic.mac1609_4 DroppedPacketsInMac 0
scalar FloodingNetwork.node[2].nic.mac1609_4 TooLittleTime 0
scalar FloodingNetwork.node[2].nic.mac1609_4 TimesIntoBackoff 25
scalar FloodingNetwork.node[2].nic.mac1609_4 SlotsBackoff 39
scalar FloodingNetwork.node[2].nic.mac1609_4 NumInternalContention 0
scalar FloodingNetwork.node[2].nic.mac1609_4 totalBusyTime 0.002937
scalar FloodingNetwork.node[2].nic.mac1609_4 retriesExceeded:count 0
attr source org_car2x_veins_modules_mac_sigRetriesExceeded
scalar FloodingNetwork.node[2].nic.mac1609_4 sentAcks:count 0
attr source org_car2x_veins_modules_mac_sigSentAck
scalar FloodingNetwork.node[2].nic.mac1609_4 sentPackets:count 25
attr source org_car2x_veins_modules_mac_sigSentPacket
scalar FloodingNetwork.node[2].nic.mac1609_4 collisions:count 0
attr source org_car2x_veins_modules_mac_sigCollision
scalar FloodingNetwork.node[2].nic.mac1609_4 channelBusy:timeavg 0.00011842738624294
attr source org_car2x_veins_modules_mac_sigChannelBusy
scalar FloodingNetwork.node[2].veinsmobility startTime 1.2
scalar FloodingNetwork.node[2].veinsmobility totalTime 24.8
scalar FloodingNetwork.node[2].veinsmobility stopTime 26.000006933997
scalar FloodingNetwork.node[2].veinsmobility minSpeed 5.7468475899959
scalar FloodingNetwork.node[2].veinsmobility maxSpeed 12.65650043706
scalar FloodingNetwork.node[2].veinsmobility totalDistance 273.71764157828
scalar FloodingNetwork.node[2].veinsmobility totalCO2Emission 86.074508849187
scalar FloodingNetwork.node[3].appl generatedWSMs 0
scalar FloodingNetwork.node[3].appl receivedWSMs 0
scalar FloodingNetwork.node[3].appl generatedBSMs 25
scalar FloodingNetwork.node[3].appl receivedBSMs 0
scalar FloodingNetwork.node[3].appl generatedWSAs 0
scalar FloodingNetwork.node[3].appl receivedWSAs 0
scalar FloodingNetwork.node[3].appl #duplicates 0
scalar FloodingNetwork.node[3].appl #numSent 0
scalar FloodingNetwork.node[3].nic.phy80211p busyTime 0.00011741932200866
scalar FloodingNetwork.node[3].nic.mac1609_4 ReceivedUnicastPackets 0
scalar FloodingNetwork.node[3].nic.mac1609_4 ReceivedBroadcasts 26
scalar FloodingNetwork.node[3].nic.mac1609_4 SentPackets 25
scalar FloodingNetwork.node[3].nic.mac1609_4 SentAcknowledgements 0
scalar FloodingNetwork.node[3].nic.mac1609_4 RetriesExceeded 0
scalar FloodingNetwork.node[3].nic.mac1609_4 SNIRLostPackets 2
scalar FloodingNetwork.node[3].nic.mac1609_4 RXTXLostPackets 0
scalar FloodingNetwork.node[3].nic.mac1609_4 TotalLostPackets 2
scalar FloodingNetwork.node[3].nic.mac1609_4 DroppedPacketsInMac 0
scalar FloodingNetwork.node[3].nic.mac1609_4 TooLittleTime 0
scalar FloodingNetwork.node[3].nic.mac1609_4 TimesIntoBackoff 25
scalar FloodingNetwork.node[3].nic.mac1609_4 SlotsBackoff 45
scalar FloodingNetwork.node[3].nic.mac1609_4 NumInternalContention 0
scalar FloodingNetwork.node[3].nic.mac1609_4 totalBusyTime 0.005537
scalar FloodingNetwork.node[3].nic.mac1609_4 retriesExceeded:count 0
attr source org_car2x_veins_modules_mac_sigRetriesExceeded
scalar FloodingNetwork.node[3].nic.mac1609_4 sentAcks:count 0
attr source org_car2x_veins_modules_mac_sigSentAck
scalar FloodingNetwork.node[3].nic.mac1609_4 sentPackets:count 25
attr source org_car2x_veins_modules_mac_sigSentPacket
scalar FloodingNetwork.node[3].nic.mac1609_4 collisions:count 0
attr source org_car2x_veins_modules_mac_sigCollision
scalar FloodingNetwork.node[3].nic.mac1609_4 channelBusy:timeavg 0.00022326606660781
attr source org_car2x_veins_modules_mac_sigChannelBusy
scalar FloodingNetwork.node[3].veinsmobility startTime 1.2
scalar FloodingNetwork.node[3].veinsmobility totalTime 24.8
scalar FloodingNetwork.node[3].veinsmobility stopTime 26.000006933997
scalar FloodingNetwork.node[3].veinsmobility minSpeed 5.9422234425475
scalar FloodingNetwork.node[3].veinsmobility maxSpeed 13.404910560673
scalar FloodingNetwork.node[3].veinsmobility totalDistance 305.70417488993
scalar FloodingNetwork.node[3].veinsmobility totalCO2Emission 64.403453607979
scalar FloodingNetwork.node[4].appl generatedWSMs 0
scalar FloodingNetwork.node[4].appl receivedWSMs 0
scalar FloodingNetwork.node[4].appl generatedBSMs 24
scalar FloodingNetwork.node[4].appl receivedBSMs 0
scalar FloodingNetwork.node[4].appl generatedWSAs 0
scalar FloodingNetwork.node[4].appl receivedWSAs 0
scalar FloodingNetwork.node[4].appl #duplicates 0
scalar FloodingNetwork.node[4].appl #numSent 0
scalar FloodingNetwork.node[4].nic.phy80211p busyTime 0.00016354834136921
scalar FloodingNetwork.node[4].nic.mac1609_4 ReceivedUnicastPackets 0
scalar FloodingNetwork.node[4].nic.mac1609_4 ReceivedBroadcasts 35
scalar FloodingNetwork.node[4].nic.mac1609_4 SentPackets 24
scalar FloodingNetwork.node[4].nic.mac1609_4 SentAcknowledgements 0
scalar FloodingNetwork.node[4].nic.mac1609_4 RetriesExceeded 0
scalar FloodingNetwork.node[4].nic.mac1609_4 SNIRLostPackets 4
scalar FloodingNetwork.node[4].nic.mac1609_4 RXTXLostPackets 0
scalar FloodingNetwork.node[4].nic.mac1609_4 TotalLostPackets 4
scalar FloodingNetwork.node[4].nic.mac1609_4 DroppedPacketsInMac 0
scalar FloodingNetwork.node[4].nic.mac1609_4 TooLittleTime 0
scalar FloodingNetwork.node[4].nic.mac1609_4 TimesIntoBackoff 48
scalar FloodingNetwork.node[4].nic.mac1609_4 SlotsBackoff 26
scalar FloodingNetwork.node[4].nic.mac1609_4 NumInternalContention 0
scalar FloodingNetwork.node[4].nic.mac1609_4 totalBusyTime 0.006576
scalar FloodingNetwork.node[4].nic.mac1609_4 retriesExceeded:count 0
attr source org_car2x_veins_modules_mac_sigRetriesExceeded
scalar FloodingNetwork.node[4].nic.mac1609_4 sentAcks:count 0
attr source org_car2x_veins_modules_mac_sigSentAck
scalar FloodingNetwork.node[4].nic.mac1609_4 sentPackets:count 24
attr source org_car2x_veins_modules_mac_sigSentPacket
scalar FloodingNetwork.node[4].nic.mac1609_4 collisions:count 0
attr source org_car2x_veins_modules_mac_sigCollision
scalar FloodingNetwork.node[4].nic.mac1609_4 channelBusy:timeavg 0.00026516121618439
attr source org_car2x_veins_modules_mac_sigChannelBusy
scalar FloodingNetwork.node[4].veinsmobility startTime 1.2
scalar FloodingNetwork.node[4].veinsmobility totalTime 24.8
scalar FloodingNetwork.node[4].veinsmobility stopTime 26.000006933997
scalar FloodingNetwork.node[4].veinsmobility minSpeed 5.7648400631704
scalar FloodingNetwork.node[4].veinsmobility maxSpeed 12.44651677162
scalar FloodingNetwork.node[4].veinsmobility totalDistance 271.68809018298
scalar FloodingNetwork.node[4].veinsmobility totalCO2Emission 84.346656774116
scalar FloodingNetwork.node[143].appl generatedWSMs 0
scalar FloodingNetwork.node[143].appl receivedWSMs 0
scalar FloodingNetwork.node[143].appl generatedBSMs 23
scalar FloodingNetwork.node[143].appl receivedBSMs 0
scalar FloodingNetwork.node[143].appl generatedWSAs 0
scalar FloodingNetwork.node[143].appl receivedWSAs 0
scalar FloodingNetwork.node[143].appl #duplicates 0
scalar FloodingNetwork.node[143].appl #numSent 0
scalar FloodingNetwork.node[143].nic.phy80211p busyTime 0.00042899987605484
scalar FloodingNetwork.node[143].nic.mac1609_4 ReceivedUnicastPackets 0
scalar FloodingNetwork.node[143].nic.mac1609_4 ReceivedBroadcasts 99
scalar FloodingNetwork.node[143].nic.mac1609_4 SentPackets 23
scalar FloodingNetwork.node[143].nic.mac1609_4 SentAcknowledgements 0
scalar FloodingNetwork.node[143].nic.mac1609_4 RetriesExceeded 0
scalar FloodingNetwork.node[143].nic.mac1609_4 SNIRLostPackets 0
scalar FloodingNetwork.node[143].nic.mac1609_4 RXTXLostPackets 0
scalar FloodingNetwork.node[143].nic.mac1609_4 TotalLostPackets 0
scalar FloodingNetwork.node[143].nic.mac1609_4 DroppedPacketsInMac 0
scalar FloodingNetwork.node[143].nic.mac1609_4 TooLittleTime 0
scalar FloodingNetwork.node[143].nic.mac1609_4 TimesIntoBackoff 23
scalar FloodingNetwork.node[143].nic.mac1609_4 SlotsBackoff 26
scalar FloodingNetwork.node[143].nic.mac1609_4 NumInternalContention 0
scalar FloodingNetwork.node[143].nic.mac1609_4 totalBusyTime 0.012711
scalar FloodingNetwork.node[143].nic.mac1609_4 retriesExceeded:count 0
attr source org_car2x_veins_modules_mac_sigRetriesExceeded
scalar FloodingNetwork.node[143].nic.mac1609_4 sentAcks:count 0
attr source org_car2x_veins_modules_mac_sigSentAck
scalar FloodingNetwork.node[143].nic.mac1609_4 sentPackets:count 23
attr source org_car2x_veins_modules_mac_sigSentPacket
scalar FloodingNetwork.node[143].nic.mac1609_4 collisions:count 0
attr source org_car2x_veins_modules_mac_sigCollision
scalar FloodingNetwork.node[143].nic.mac1609_4 channelBusy:timeavg 0.00052962484698262
attr source org_car2x_veins_modules_mac_sigChannelBusy
scalar FloodingNetwork.node[143].veinsmobility startTime 2
scalar FloodingNetwork.node[143].veinsmobility totalTime 24
scalar FloodingNetwork.node[143].veinsmobility stopTime 26.000006933997
scalar FloodingNetwork.node[143].veinsmobility minSpeed 4.5070146396972
scalar FloodingNetwork.node[143].veinsmobility maxSpeed 13.490978737287
scalar FloodingNetwork.node[143].veinsmobility totalDistance 240.81581258554
scalar FloodingNetwork.node[143].veinsmobility totalCO2Emission 93.240845783902
scalar FloodingNetwork.node[5].appl generatedWSMs 0
scalar FloodingNetwork.node[5].appl receivedWSMs 0
scalar FloodingNetwork.node[5].appl generatedBSMs 25
scalar FloodingNetwork.node[5].appl receivedBSMs 0
scalar FloodingNetwork.node[5].appl generatedWSAs 0
scalar FloodingNetwork.node[5].appl receivedWSAs 0
scalar FloodingNetwork.node[5].appl #duplicates 0
scalar FloodingNetwork.node[5].appl #numSent 0
scalar FloodingNetwork.node[5].nic.phy80211p busyTime 0
scalar FloodingNetwork.node[5].nic.mac1609_4 ReceivedUnicastPackets 0
scalar FloodingNetwork.node[5].nic.mac1609_4 ReceivedBroadcasts 0
scalar FloodingNetwork.node[5].nic.mac1609_4 SentPackets 25
scalar FloodingNetwork.node[5].nic.mac1609_4 SentAcknowledgements 0
scalar FloodingNetwork.node[5].nic.mac1609_4 RetriesExceeded 0
scalar FloodingNetwork.node[5].nic.mac1609_4 SNIRLostPackets 0
scalar FloodingNetwork.node[5].nic.mac1609_4 RXTXLostPackets 0
scalar FloodingNetwork.node[5].nic.mac1609_4 TotalLostPackets 0
scalar FloodingNetwork.node[5].nic.mac1609_4 DroppedPacketsInMac 0
scalar FloodingNetwork.node[5].nic.mac1609_4 TooLittleTime 0
scalar FloodingNetwork.node[5].nic.mac1609_4 TimesIntoBackoff 25
scalar FloodingNetwork.node[5].nic.mac1609_4 SlotsBackoff 31
scalar FloodingNetwork.node[5].nic.mac1609_4 NumInternalContention 0
scalar FloodingNetwork.node[5].nic.mac1609_4 totalBusyTime 0.002625
scalar FloodingNetwork.node[5].nic.mac1609_4 retriesExceeded:count 0
attr source org_car2x_veins_modules_mac_sigRetriesExceeded
scalar FloodingNetwork.node[5].nic.mac1609_4 sentAcks:count 0
attr source org_car2x_veins_modules_mac_sigSentAck
scalar FloodingNetwork.node[5].nic.mac1609_4 sentPackets:count 25
attr source org_car2x_veins_modules_mac_sigSentPacket
scalar FloodingNetwork.node[5].nic.mac1609_4 collisions:count 0
attr source org_car2x_veins_modules_mac_sigCollision
scalar FloodingNetwork.node[5].nic.mac1609_4 channelBusy:timeavg 0.00010584674459915
attr source org_car2x_veins_modules_mac_sigChannelBusy
scalar FloodingNetwork.node[5].veinsmobility startTime 1.2
scalar FloodingNetwork.node[5].veinsmobility totalTime 24.8
scalar FloodingNetwork.node[5].veinsmobility stopTime 26.000006933997
scalar FloodingNetwork.node[5].veinsmobility minSpeed 5.7575271461087
scalar FloodingNetwork.node[5].veinsmobility maxSpeed 16.134576947561
scalar FloodingNetwork.node[5].veinsmobility totalDistance 279.78552494248
scalar FloodingNetwork.node[5].veinsmobility totalCO2Emission 135.20280199342
scalar FloodingNetwork.node[6].appl generatedWSMs 0
scalar FloodingNetwork.node[6].appl receivedWSMs 0
scalar FloodingNetwork.node[6].appl generatedBSMs 24
scalar FloodingNetwork.node[6].appl receivedBSMs 0
scalar FloodingNetwork.node[6].appl generatedWSAs 0
scalar FloodingNetwork.node[6].appl receivedWSAs 0
scalar FloodingNetwork.node[6].appl #duplicates 0
scalar FloodingNetwork.node[6].appl #numSent 0
scalar FloodingNetwork.node[6].nic.phy80211p busyTime 0.00018870962465678
scalar FloodingNetwork.node[6].nic.mac1609_4 ReceivedUnicastPackets 0
scalar FloodingNetwork.node[6].nic.mac1609_4 ReceivedBroadcasts 41
scalar FloodingNetwork.node[6].nic.mac1609_4 SentPackets 24
scalar FloodingNetwork.node[6].nic.mac1609_4 SentAcknowledgements 0
scalar FloodingNetwork.node[6].nic.mac1609_4 RetriesExceeded 0
scalar FloodingNetwork.node[6].nic.mac1609_4 SNIRLostPackets 4
scalar FloodingNetwork.node[6].nic.mac1609_4 RXTXLostPackets 0
scalar FloodingNetwork.node[6].nic.mac1609_4 TotalLostPackets 4
scalar FloodingNetwork.node[6].nic.mac1609_4 DroppedPacketsInMac 0
scalar FloodingNetwork.node[6].nic.mac1609_4 TooLittleTime 0
scalar FloodingNetwork.node[6].nic.mac1609_4 TimesIntoBackoff 24
scalar FloodingNetwork.node[6].nic.mac1609_4 SlotsBackoff 36
scalar FloodingNetwork.node[6].nic.mac1609_4 NumInternalContention 0
scalar FloodingNetwork.node[6].nic.mac1609_4 totalBusyTime 0.0072
scalar FloodingNetwork.node[6].nic.mac1609_4 retriesExceeded:count 0
attr source org_car2x_veins_modules_mac_sigRetriesExceeded
scalar FloodingNetwork.node[6].nic.mac1609_4 sentAcks:count 0
attr source org_car2x_veins_modules_mac_sigSentAck
scalar FloodingNetwork.node[6].nic.mac1609_4 sentPackets:count 24
attr source org_car2x_veins_modules_mac_sigSentPacket
scalar FloodingNetwork.node[6].nic.mac1609_4 collisions:count 0
attr source org_car2x_veins_modules_mac_sigCollision
scalar FloodingNetwork.node[6].nic.mac1609_4 channelBusy:timeavg 0.00029032249947196
attr source org_car2x_veins_modules_mac_sigChannelBusy
scalar FloodingNetwork.node[6].veinsmobility startTime 1.2
scalar FloodingNetwork.node[6].veinsmobility totalTime 24.8
scalar FloodingNetwork.node[6].veinsmobility stopTime 26.000006933997
scalar FloodingNetwork.node[6].veinsmobility minSpeed 5.8051688486161
scalar FloodingNetwork.node[6].veinsmobility maxSpeed 13.677000453836
scalar FloodingNetwork.node[6].veinsmobility totalDistance 307.45766885064
scalar FloodingNetwork.node[6].veinsmobility totalCO2Emission 65.787908272503
scalar FloodingNetwork.node[7].appl generatedWSMs 0
scalar FloodingNetwork.node[7].appl receivedWSMs 0
scalar FloodingNetwork.node[7].appl generatedBSMs 24
scalar FloodingNetwork.node[7].appl receivedBSMs 0
scalar FloodingNetwork.node[7].appl generatedWSAs 0
scalar FloodingNetwork.node[7].appl receivedWSAs 0
scalar FloodingNetwork.node[7].appl #duplicates 0
scalar FloodingNetwork.node[7].appl #numSent 0
scalar FloodingNetwork.node[7].nic.phy80211p busyTime 0.00013838705808164
scalar FloodingNetwork.node[7].nic.mac1609_4 ReceivedUnicastPackets 0
scalar FloodingNetwork.node[7].nic.mac1609_4 ReceivedBroadcasts 32
scalar FloodingNetwork.node[7].nic.mac1609_4 SentPackets 24
scalar FloodingNetwork.node[7].nic.mac1609_4 SentAcknowledgements 0
scalar FloodingNetwork.node[7].nic.mac1609_4 RetriesExceeded 0
scalar FloodingNetwork.node[7].nic.mac1609_4 SNIRLostPackets 1
scalar FloodingNetwork.node[7].nic.mac1609_4 RXTXLostPackets 0
scalar FloodingNetwork.node[7].nic.mac1609_4 TotalLostPackets 1
scalar FloodingNetwork.node[7].nic.mac1609_4 DroppedPacketsInMac 0
scalar FloodingNetwork.node[7].nic.mac1609_4 TooLittleTime 0
scalar FloodingNetwork.node[7].nic.mac1609_4 TimesIntoBackoff 24
scalar FloodingNetwork.node[7].nic.mac1609_4 SlotsBackoff 38
scalar FloodingNetwork.node[7].nic.mac1609_4 NumInternalContention 0
scalar FloodingNetwork.node[7].nic.mac1609_4 totalBusyTime 0.005952
scalar FloodingNetwork.node[7].nic.mac1609_4 retriesExceeded:count 0
attr source org_car2x_veins_modules_mac_sigRetriesExceeded
scalar FloodingNetwork.node[7].nic.mac1609_4 sentAcks:count 0
attr source org_car2x_veins_modules_mac_sigSentAck
scalar FloodingNetwork.node[7].nic.mac1609_4 sentPackets:count 24
attr source org_car2x_veins_modules_mac_sigSentPacket
scalar FloodingNetwork.node[7].nic.mac1609_4 collisions:count 0
attr source org_car2x_veins_modules_mac_sigCollision
scalar FloodingNetwork.node[7].nic.mac1609_4 channelBusy:timeavg 0.00023999993289682
attr source org_car2x_veins_modules_mac_sigChannelBusy
scalar FloodingNetwork.node[7].veinsmobility startTime 1.2
scalar FloodingNetwork.node[7].veinsmobility totalTime 24.8
scalar FloodingNetwork.node[7].veinsmobility stopTime 26.000006933997
scalar FloodingNetwork.node[7].veinsmobility minSpeed 6.0098390092882
scalar FloodingNetwork.node[7].veinsmobility maxSpeed 14.311000668148
scalar FloodingNetwork.node[7].veinsmobility totalDistance 314.41007554401
scalar FloodingNetwork.node[7].veinsmobility totalCO2Emission 71.897830142424
scalar FloodingNetwork.node[8].appl generatedWSMs 0
scalar FloodingNetwork.node[8].appl receivedWSMs 0
scalar FloodingNetwork.node[8].appl generatedBSMs 25
scalar FloodingNetwork.node[8].appl receivedBSMs 0
scalar FloodingNetwork.node[8].appl generatedWSAs 0
scalar FloodingNetwork.node[8].appl receivedWSAs 0
scalar FloodingNetwork.node[8].appl #duplicates 0
scalar FloodingNetwork.node[8].appl #numSent 0
scalar FloodingNetwork.node[8].nic.phy80211p busyTime 0.00023483864401732
scalar FloodingNetwork.node[8].nic.mac1609_4 ReceivedUnicastPackets 0
scalar FloodingNetwork.node[8].nic.mac1609_4 ReceivedBroadcasts 56
scalar FloodingNetwork.node[8].nic.mac1609_4 SentPackets 25
scalar FloodingNetwork.node[8].nic.mac1609_4 SentAcknowledgements 0
scalar FloodingNetwork.node[8].nic.mac1609_4 RetriesExceeded 0
scalar FloodingNetwork.node[8].nic.mac1609_4 SNIRLostPackets 0
scalar FloodingNetwork.node[8].nic.mac1609_4 RXTXLostPackets 0
scalar FloodingNetwork.node[8].nic.mac1609_4 TotalLostPackets 0
scalar FloodingNetwork.node[8].nic.mac1609_4 DroppedPacketsInMac 0
scalar FloodingNetwork.node[8].nic.mac1609_4 TooLittleTime 0
scalar FloodingNetwork.node[8].nic.mac1609_4 TimesIntoBackoff 25
scalar FloodingNetwork.node[8].nic.mac1609_4 SlotsBackoff 21
scalar FloodingNetwork.node[8].nic.mac1609_4 NumInternalContention 0
scalar FloodingNetwork.node[8].nic.mac1609_4 totalBusyTime 0.008449
scalar FloodingNetwork.node[8].nic.mac1609_4 retriesExceeded:count 0
attr source org_car2x_veins_modules_mac_sigRetriesExceeded
scalar FloodingNetwork.node[8].nic.mac1609_4 sentAcks:count 0
attr source org_car2x_veins_modules_mac_sigSentAck
scalar FloodingNetwork.node[8].nic.mac1609_4 sentPackets:count 25
attr source org_car2x_veins_modules_mac_sigSentPacket
scalar FloodingNetwork.node[8].nic.mac1609_4 collisions:count 0
attr source org_car2x_veins_modules_mac_sigCollision
scalar FloodingNetwork.node[8].nic.mac1609_4 channelBusy:timeavg 0.00034068538861647
attr source org_car2x_veins_modules_mac_sigChannelBusy
scalar FloodingNetwork.node[8].veinsmobility startTime 1.2
scalar FloodingNetwork.node[8].veinsmobility totalTime 24.8
scalar FloodingNetwork.node[8].veinsmobility stopTime 26.000006933997
scalar FloodingNetwork.node[8].veinsmobility minSpeed 5.7629763161877
scalar FloodingNetwork.node[8].veinsmobility maxSpeed 15.173964073004
scalar FloodingNetwork.node[8].veinsmobility totalDistance 288.51251015417
scalar FloodingNetwork.node[8].veinsmobility totalCO2Emission 110.38757140802
scalar FloodingNetwork.node[9].appl generatedWSMs 0
scalar FloodingNetwork.node[9].appl receivedWSMs 0
scalar FloodingNetwork.node[9].appl generatedBSMs 24
scalar FloodingNetwork.node[9].appl receivedBSMs 0
scalar FloodingNetwork.node[9].appl generatedWSAs 0
scalar FloodingNetwork.node[9].appl receivedWSAs 0
scalar FloodingNetwork.node[9].appl #duplicates 0
scalar FloodingNetwork.node[9].appl #numSent 0
scalar FloodingNetwork.node[9].nic.phy80211p busyTime 9.6451585935685e-05
scalar FloodingNetwork.node[9].nic.mac1609_4 ReceivedUnicastPackets 0
scalar FloodingNetwork.node[9].nic.mac1609_4 ReceivedBroadcasts 21
scalar FloodingNetwork.node[9].nic.mac1609_4 SentPackets 24
scalar FloodingNetwork.node[9].nic.mac1609_4 SentAcknowledgements 0
scalar FloodingNetwork.node[9].nic.mac1609_4 RetriesExceeded 0
scalar FloodingNetwork.node[9].nic.mac1609_4 SNIRLostPackets 2
scalar FloodingNetwork.node[9].nic.mac1609_4 RXTXLostPackets 0
scalar FloodingNetwork.node[9].nic.mac1609_4 TotalLostPackets 2
scalar FloodingNetwork.node[9].nic.mac1609_4 DroppedPacketsInMac 0
scalar FloodingNetwork.node[9].nic.mac1609_4 TooLittleTime 0
scalar FloodingNetwork.node[9].nic.mac1609_4 TimesIntoBackoff 24
scalar FloodingNetwork.node[9].nic.mac1609_4 SlotsBackoff 43
scalar FloodingNetwork.node[9].nic.mac1609_4 NumInternalContention 0
scalar FloodingNetwork.node[9].nic.mac1609_4 totalBusyTime 0.004912
scalar FloodingNetwork.node[9].nic.mac1609_4 retriesExceeded:count 0
attr source org_car2x_veins_modules_mac_sigRetriesExceeded
scalar FloodingNetwork.node[9].nic.mac1609_4 sentAcks:count 0
attr source org_car2x_veins_modules_mac_sigSentAck
scalar FloodingNetwork.node[9].nic.mac1609_4 sentPackets:count 24
attr source org_car2x_veins_modules_mac_sigSentPacket
scalar FloodingNetwork.node[9].nic.mac1609_4 collisions:count 0
attr source org_car2x_veins_modules_mac_sigCollision
scalar FloodingNetwork.node[9].nic.mac1609_4 channelBusy:timeavg 0.00019806446075087
attr source org_car2x_veins_modules_mac_sigChannelBusy
scalar FloodingNetwork.node[9].veinsmobility startTime 1.2
scalar FloodingNetwork.node[9].veinsmobility totalTime 24.8
scalar FloodingNetwork.node[9].veinsmobility stopTime 26.000006933997
scalar FloodingNetwork.node[9].veinsmobility minSpeed 5.9343484079292
scalar FloodingNetwork.node[9].veinsmobility maxSpeed 16.941909026373
scalar FloodingNetwork.node[9].veinsmobility totalDistance 276.42519032801
scalar FloodingNetwork.node[9].veinsmobility totalCO2Emission 108.21953793757
scalar FloodingNetwork.node[124].appl generatedWSMs 0
scalar FloodingNetwork.node[124].appl receivedWSMs 0
scalar FloodingNetwork.node[124].appl generatedBSMs 24
scalar FloodingNetwork.node[124].appl receivedBSMs 0
scalar FloodingNetwork.node[124].appl generatedWSAs 0
scalar FloodingNetwork.node[124].appl receivedWSAs 0
scalar FloodingNetwork.node[124].appl #duplicates 0
scalar FloodingNetwork.node[124].appl #numSent 0
scalar FloodingNetwork.node[124].nic.phy80211p busyTime 0.00010655734676769
scalar FloodingNetwork.node[124].nic.mac1609_4 ReceivedUnicastPackets 0
scalar FloodingNetwork.node[124].nic.mac1609_4 ReceivedBroadcasts 25
scalar FloodingNetwork.node[124].nic.mac1609_4 SentPackets 24
scalar FloodingNetwork.node[124].nic.mac1609_4 SentAcknowledgements 0
scalar FloodingNetwork.node[124].nic.mac1609_4 RetriesExceeded 0
scalar FloodingNetwork.node[124].nic.mac1609_4 SNIRLostPackets 0
scalar FloodingNetwork.node[124].nic.mac1609_4 RXTXLostPackets 0
scalar FloodingNetwork.node[124].nic.mac1609_4 TotalLostPackets 0
scalar FloodingNetwork.node[124].nic.mac1609_4 DroppedPacketsInMac 0
scalar FloodingNetwork.node[124].nic.mac1609_4 TooLittleTime 0
scalar FloodingNetwork.node[124].nic.mac1609_4 TimesIntoBackoff 24
scalar FloodingNetwork.node[124].nic.mac1609_4 SlotsBackoff 40
scalar FloodingNetwork.node[124].nic.mac1609_4 NumInternalContention 0
scalar FloodingNetwork.node[124].nic.mac1609_4 totalBusyTime 0.00512
scalar FloodingNetwork.node[124].nic.mac1609_4 retriesExceeded:count 0
attr source org_car2x_veins_modules_mac_sigRetriesExceeded
scalar FloodingNetwork.node[124].nic.mac1609_4 sentAcks:count 0
attr source org_car2x_veins_modules_mac_sigSentAck
scalar FloodingNetwork.node[124].nic.mac1609_4 sentPackets:count 24
attr source org_car2x_veins_modules_mac_sigSentPacket
scalar FloodingNetwork.node[124].nic.mac1609_4 collisions:count 0
attr source org_car2x_veins_modules_mac_sigCollision
scalar FloodingNetwork.node[124].nic.mac1609_4 channelBusy:timeavg 0.00020983600594253
attr source org_car2x_veins_modules_mac_sigChannelBusy
scalar FloodingNetwork.node[124].veinsmobility startTime 1.6
scalar FloodingNetwork.node[124].veinsmobility totalTime 24.4
scalar FloodingNetwork.node[124].veinsmobility stopTime 26.000006933997
scalar FloodingNetwork.node[124].veinsmobility minSpeed 5.7757707084641
scalar FloodingNetwork.node[124].veinsmobility maxSpeed 11.709799986225
scalar FloodingNetwork.node[124].veinsmobility totalDistance 245.33725186463
scalar FloodingNetwork.node[124].veinsmobility totalCO2Emission 79.884385985044
scalar FloodingNetwork.node[10].appl generatedWSMs 0
scalar FloodingNetwork.node[10].appl receivedWSMs 0
scalar FloodingNetwork.node[10].appl generatedBSMs 24
scalar FloodingNetwork.node[10].appl receivedBSMs 0
scalar FloodingNetwork.node[10].appl generatedWSAs 0
scalar FloodingNetwork.node[10].appl receivedWSAs 0
scalar FloodingNetwork.node[10].appl #duplicates 0
scalar FloodingNetwork.node[10].appl #numSent 0
scalar FloodingNetwork.node[10].nic.phy80211p busyTime 0.00011322577479407
scalar FloodingNetwork.node[10].nic.mac1609_4 ReceivedUnicastPackets 0
scalar FloodingNetwork.node[10].nic.mac1609_4 ReceivedBroadcasts 26
scalar FloodingNetwork.node[10].nic.mac1609_4 SentPackets 24
scalar FloodingNetwork.node[10].nic.mac1609_4 SentAcknowledgements 0
scalar FloodingNetwork.node[10].nic.mac1609_4 RetriesExceeded 0
scalar FloodingNetwork.node[10].nic.mac1609_4 SNIRLostPackets 1
scalar FloodingNetwork.node[10].nic.mac1609_4 RXTXLostPackets 0
scalar FloodingNetwork.node[10].nic.mac1609_4 TotalLostPackets 1
scalar FloodingNetwork.node[10].nic.mac1609_4 DroppedPacketsInMac 0
scalar FloodingNetwork.node[10].nic.mac1609_4 TooLittleTime 0
scalar FloodingNetwork.node[10].nic.mac1609_4 TimesIntoBackoff 48
scalar FloodingNetwork.node[10].nic.mac1609_4 SlotsBackoff 32
scalar FloodingNetwork.node[10].nic.mac1609_4 NumInternalContention 0
scalar FloodingNetwork.node[10].nic.mac1609_4 totalBusyTime 0.005328
scalar FloodingNetwork.node[10].nic.mac1609_4 retriesExceeded:count 0
attr source org_car2x_veins_modules_mac_sigRetriesExceeded
scalar FloodingNetwork.node[10].nic.mac1609_4 sentAcks:count 0
attr source org_car2x_veins_modules_mac_sigSentAck
scalar FloodingNetwork.node[10].nic.mac1609_4 sentPackets:count 24
attr source org_car2x_veins_modules_mac_sigSentPacket
scalar FloodingNetwork.node[10].nic.mac1609_4 collisions:count 0
attr source org_car2x_veins_modules_mac_sigCollision
scalar FloodingNetwork.node[10].nic.mac1609_4 channelBusy:timeavg 0.00021483864960925
attr source org_car2x_veins_modules_mac_sigChannelBusy
scalar FloodingNetwork.node[10].veinsmobility startTime 1.2
scalar FloodingNetwork.node[10].veinsmobility totalTime 24.8
scalar FloodingNetwork.node[10].veinsmobility stopTime 26.000006933997
scalar FloodingNetwork.node[10].veinsmobility minSpeed 5.8522030735102
scalar FloodingNetwork.node[10].veinsmobility maxSpeed 14.652444607973
scalar FloodingNetwork.node[10].veinsmobility totalDistance 328.62380654862
scalar FloodingNetwork.node[10].veinsmobility totalCO2Emission 71.047642670765
scalar FloodingNetwork.node[11].appl generatedWSMs 0
scalar FloodingNetwork.node[11].appl receivedWSMs 0
scalar FloodingNetwork.node[11].appl generatedBSMs 25
scalar FloodingNetwork.node[11].appl receivedBSMs 0
scalar FloodingNetwork.node[11].appl generatedWSAs 0
scalar FloodingNetwork.node[11].appl receivedWSAs 0
scalar FloodingNetwork.node[11].appl #duplicates 0
scalar FloodingNetwork.node[11].appl #numSent 0
scalar FloodingNetwork.node[11].nic.phy80211p busyTime 0.00020967736072975
scalar FloodingNetwork.node[11].nic.mac1609_4 ReceivedUnicastPackets 0
scalar FloodingNetwork.node[11].nic.mac1609_4 ReceivedBroadcasts 49
scalar FloodingNetwork.node[11].nic.mac1609_4 SentPackets 25
scalar FloodingNetwork.node[11].nic.mac1609_4 SentAcknowledgements 0
scalar FloodingNetwork.node[11].nic.mac1609_4 RetriesExceeded 0
scalar FloodingNetwork.node[11].nic.mac1609_4 SNIRLostPackets 1
scalar FloodingNetwork.node[11].nic.mac1609_4 RXTXLostPackets 0
scalar FloodingNetwork.node[11].nic.mac1609_4 TotalLostPackets 1
scalar FloodingNetwork.node[11].nic.mac1609_4 DroppedPacketsInMac 0
scalar FloodingNetwork.node[11].nic.mac1609_4 TooLittleTime 0
scalar FloodingNetwork.node[11].nic.mac1609_4 TimesIntoBackoff 25
scalar FloodingNetwork.node[11].nic.mac1609_4 SlotsBackoff 38
scalar FloodingNetwork.node[11].nic.mac1609_4 NumInternalContention 0
scalar FloodingNetwork.node[11].nic.mac1609_4 totalBusyTime 0.007825
scalar FloodingNetwork.node[11].nic.mac1609_4 retriesExceeded:count 0
attr source org_car2x_veins_modules_mac_sigRetriesExceeded
scalar FloodingNetwork.node[11].nic.mac1609_4 sentAcks:count 0
attr source org_car2x_veins_modules_mac_sigSentAck
scalar FloodingNetwork.node[11].nic.mac1609_4 sentPackets:count 25
attr source org_car2x_veins_modules_mac_sigSentPacket
scalar FloodingNetwork.node[11].nic.mac1609_4 collisions:count 0
attr source org_car2x_veins_modules_mac_sigCollision
scalar FloodingNetwork.node[11].nic.mac1609_4 channelBusy:timeavg 0.0003155241053289
attr source org_car2x_veins_modules_mac_sigChannelBusy
scalar FloodingNetwork.node[11].veinsmobility startTime 1.2
scalar FloodingNetwork.node[11].veinsmobility totalTime 24.8
scalar FloodingNetwork.node[11].veinsmobility stopTime 26.000006933997
scalar FloodingNetwork.node[11].veinsmobility minSpeed 5.836562064992
scalar FloodingNetwork.node[11].veinsmobility maxSpeed 14.810697849906
scalar FloodingNetwork.node[11].veinsmobility totalDistance 288.21198898128
scalar FloodingNetwork.node[11].veinsmobility totalCO2Emission 105.70752200555
scalar FloodingNetwork.node[12].appl generatedWSMs 0
scalar FloodingNetwork.node[12].appl receivedWSMs 0
scalar FloodingNetwork.node[12].appl generatedBSMs 25
scalar FloodingNetwork.node[12].appl receivedBSMs 0
scalar FloodingNetwork.node[12].appl generatedWSAs 0
scalar FloodingNetwork.node[12].appl receivedWSAs 0
scalar FloodingNetwork.node[12].appl #duplicates 0
scalar FloodingNetwork.node[12].appl #numSent 0
scalar FloodingNetwork.node[12].nic.phy80211p busyTime 1.2580641643785e-05
scalar FloodingNetwork.node[12].nic.mac1609_4 ReceivedUnicastPackets 0
scalar FloodingNetwork.node[12].nic.mac1609_4 ReceivedBroadcasts 1
scalar FloodingNetwork.node[12].nic.mac1609_4 SentPackets 25
scalar FloodingNetwork.node[12].nic.mac1609_4 SentAcknowledgements 0
scalar FloodingNetwork.node[12].nic.mac1609_4 RetriesExceeded 0
scalar FloodingNetwork.node[12].nic.mac1609_4 SNIRLostPackets 2
scalar FloodingNetwork.node[12].nic.mac1609_4 RXTXLostPackets 0
scalar FloodingNetwork.node[12].nic.mac1609_4 TotalLostPackets 2
scalar FloodingNetwork.node[12].nic.mac1609_4 DroppedPacketsInMac 0
scalar FloodingNetwork.node[12].nic.mac1609_4 TooLittleTime 0
scalar FloodingNetwork.node[12].nic.mac1609_4 TimesIntoBackoff 25
scalar FloodingNetwork.node[12].nic.mac1609_4 SlotsBackoff 36
scalar FloodingNetwork.node[12].nic.mac1609_4 NumInternalContention 0
scalar FloodingNetwork.node[12].nic.mac1609_4 totalBusyTime 0.002937
scalar FloodingNetwork.node[12].nic.mac1609_4 retriesExceeded:count 0
attr source org_car2x_veins_modules_mac_sigRetriesExceeded
scalar FloodingNetwork.node[12].nic.mac1609_4 sentAcks:count 0
attr source org_car2x_veins_modules_mac_sigSentAck
scalar FloodingNetwork.node[12].nic.mac1609_4 sentPackets:count 25
attr source org_car2x_veins_modules_mac_sigSentPacket
scalar FloodingNetwork.node[12].nic.mac1609_4 collisions:count 0
attr source org_car2x_veins_modules_mac_sigCollision
scalar FloodingNetwork.node[12].nic.mac1609_4 channelBusy:timeavg 0.00011842738624294
attr source org_car2x_veins_modules_mac_sigChannelBusy
scalar FloodingNetwork.node[12].veinsmobility startTime 1.2
scalar FloodingNetwork.node[12].veinsmobility totalTime 24.8
scalar FloodingNetwork.node[12].veinsmobility stopTime 26.000006933997
scalar FloodingNetwork.node[12].veinsmobility minSpeed 5.7938341154288
scalar FloodingNetwork.node[12].veinsmobility maxSpeed 14.19754665381
scalar FloodingNetwork.node[12].veinsmobility totalDistance 311.99208505478
scalar FloodingNetwork.node[12].veinsmobility totalCO2Emission 70.370824499365
scalar FloodingNetwork.node[13].appl generatedWSMs 0
scalar FloodingNetwork.node[13].appl receivedWSMs 0
scalar FloodingNetwork.node[13].appl generatedBSMs 25
scalar FloodingNetwork.node[13].appl receivedBSMs 0
scalar FloodingNetwork.node[13].appl generatedWSAs 0
scalar FloodingNetwork.node[13].appl receivedWSAs 0
scalar FloodingNetwork.node[13].appl #duplicates 0
scalar FloodingNetwork.node[13].appl #numSent 0
scalar FloodingNetwork.node[13].nic.phy80211p busyTime 0
scalar FloodingNetwork.node[13].nic.mac1609_4 ReceivedUnicastPackets 0
scalar FloodingNetwork.node[13].nic.mac1609_4 ReceivedBroadcasts 0
scalar FloodingNetwork.node[13].nic.mac1609_4 SentPackets 25
scalar FloodingNetwork.node[13].nic.mac1609_4 SentAcknowledgements 0
scalar FloodingNetwork.node[13].nic.mac1609_4 RetriesExceeded 0
scalar FloodingNetwork.node[13].nic.mac1609_4 SNIRLostPackets 0
scalar FloodingNetwork.node[13].nic.mac1609_4 RXTXLostPackets 0
scalar FloodingNetwork.node[13].nic.mac1609_4 TotalLostPackets 0
scalar FloodingNetwork.node[13].nic.mac1609_4 DroppedPacketsInMac 0
scalar FloodingNetwork.node[13].nic.mac1609_4 TooLittleTime 0
scalar FloodingNetwork.node[13].nic.mac1609_4 TimesIntoBackoff 25
scalar FloodingNetwork.node[13].nic.mac1609_4 SlotsBackoff 30
scalar FloodingNetwork.node[13].nic.mac1609_4 NumInternalContention 0
scalar FloodingNetwork.node[13].nic.mac1609_4 totalBusyTime 0.002625
scalar FloodingNetwork.node[13].nic.mac1609_4 retriesExceeded:count 0
attr source org_car2x_veins_modules_mac_sigRetriesExceeded
scalar FloodingNetwork.node[13].nic.mac1609_4 sentAcks:count 0
attr source org_car2x_veins_modules_mac_sigSentAck
scalar FloodingNetwork.node[13].nic.mac1609_4 sentPackets:count 25
attr source org_car2x_veins_modules_mac_sigSentPacket
scalar FloodingNetwork.node[13].nic.mac1609_4 collisions:count 0
attr source org_car2x_veins_modules_mac_sigCollision
scalar FloodingNetwork.node[13].nic.mac1609_4 channelBusy:timeavg 0.00010584674459915
attr source org_car2x_veins_modules_mac_sigChannelBusy
scalar FloodingNetwork.node[13].veinsmobility startTime 1.2
scalar FloodingNetwork.node[13].veinsmobility totalTime 24.8
scalar FloodingNetwork.node[13].veinsmobility stopTime 26.000006933997
scalar FloodingNetwork.node[13].veinsmobility minSpeed 5.9193357684651
scalar FloodingNetwork.node[13].veinsmobility maxSpeed 14.008374007232
scalar FloodingNetwork.node[13].veinsmobility totalDistance 311.12603329471
scalar FloodingNetwork.node[13].veinsmobility totalCO2Emission 69.485122477389
scalar FloodingNetwork.node[14].appl generatedWSMs 0
scalar FloodingNetwork.node[14].appl receivedWSMs 0
scalar FloodingNetwork.node[14].appl generatedBSMs 25
scalar FloodingNetwork.node[14].appl receivedBSMs 0
scalar FloodingNetwork.node[14].appl generatedWSAs 0
scalar FloodingNetwork.node[14].appl receivedWSAs 0
scalar FloodingNetwork.node[14].appl #duplicates 0
scalar FloodingNetwork.node[14].appl #numSent 0
scalar FloodingNetwork.node[14].nic.phy80211p busyTime 2.9354830502165e-05
scalar FloodingNetwork.node[14].nic.mac1609_4 ReceivedUnicastPackets 0
scalar FloodingNetwork.node[14].nic.mac1609_4 ReceivedBroadcasts 3
scalar FloodingNetwork.node[14].nic.mac1609_4 SentPackets 25
scalar FloodingNetwork.node[14].nic.mac1609_4 SentAcknowledgements 0
scalar FloodingNetwork.node[14].nic.mac1609_4 RetriesExceeded 0
scalar FloodingNetwork.node[14].nic.mac1609_4 SNIRLostPackets 4
scalar FloodingNetwork.node[14].nic.mac1609_4 RXTXLostPackets 0
scalar FloodingNetwork.node[14].nic.mac1609_4 TotalLostPackets 4
scalar FloodingNetwork.node[14].nic.mac1609_4 DroppedPacketsInMac 0
scalar FloodingNetwork.node[14].nic.mac1609_4 TooLittleTime 0
scalar FloodingNetwork.node[14].nic.mac1609_4 TimesIntoBackoff 25
scalar FloodingNetwork.node[14].nic.mac1609_4 SlotsBackoff 30
scalar FloodingNetwork.node[14].nic.mac1609_4 NumInternalContention 0
scalar FloodingNetwork.node[14].nic.mac1609_4 totalBusyTime 0.003353
scalar FloodingNetwork.node[14].nic.mac1609_4 retriesExceeded:count 0
attr source org_car2x_veins_modules_mac_sigRetriesExceeded
scalar FloodingNetwork.node[14].nic.mac1609_4 sentAcks:count 0
attr source org_car2x_veins_modules_mac_sigSentAck
scalar FloodingNetwork.node[14].nic.mac1609_4 sentPackets:count 25
attr source org_car2x_veins_modules_mac_sigSentPacket
scalar FloodingNetwork.node[14].nic.mac1609_4 collisions:count 0
attr source org_car2x_veins_modules_mac_sigCollision
scalar FloodingNetwork.node[14].nic.mac1609_4 channelBusy:timeavg 0.00013520157510132
attr source org_car2x_veins_modules_mac_sigChannelBusy
scalar FloodingNetwork.node[14].veinsmobility startTime 1.2
scalar FloodingNetwork.node[14].veinsmobility totalTime 24.8
scalar FloodingNetwork.node[14].veinsmobility stopTime 26.000006933997
scalar FloodingNetwork.node[14].veinsmobility minSpeed 5.8202828213316
scalar FloodingNetwork.node[14].veinsmobility maxSpeed 14.572218746042
scalar FloodingNetwork.node[14].veinsmobility totalDistance 282.32775953443
scalar FloodingNetwork.node[14].veinsmobility totalCO2Emission 103.39500860511
scalar FloodingNetwork.node[149].appl generatedWSMs 0
scalar FloodingNetwork.node[149].appl receivedWSMs 0
scalar FloodingNetwork.node[149].appl generatedBSMs 22
scalar FloodingNetwork.node[149].appl receivedBSMs 0
scalar FloodingNetwork.node[149].appl generatedWSAs 0
scalar FloodingNetwork.node[149].appl receivedWSAs 0
scalar FloodingNetwork.node[149].appl #duplicates 0
scalar FloodingNetwork.node[149].appl #numSent 0
scalar FloodingNetwork.node[149].nic.phy80211p busyTime 0.00022749992957661
scalar FloodingNetwork.node[149].nic.mac1609_4 ReceivedUnicastPackets 0
scalar FloodingNetwork.node[149].nic.mac1609_4 ReceivedBroadcasts 45
scalar FloodingNetwork.node[149].nic.mac1609_4 SentPackets 22
scalar FloodingNetwork.node[149].nic.mac1609_4 SentAcknowledgements 0
scalar FloodingNetwork.node[149].nic.mac1609_4 RetriesExceeded 0
scalar FloodingNetwork.node[149].nic.mac1609_4 SNIRLostPackets 4
scalar FloodingNetwork.node[149].nic.mac1609_4 RXTXLostPackets 0
scalar FloodingNetwork.node[149].nic.mac1609_4 TotalLostPackets 4
scalar FloodingNetwork.node[149].nic.mac1609_4 DroppedPacketsInMac 0
scalar FloodingNetwork.node[149].nic.mac1609_4 TooLittleTime 0
scalar FloodingNetwork.node[149].nic.mac1609_4 TimesIntoBackoff 22
scalar FloodingNetwork.node[149].nic.mac1609_4 SlotsBackoff 21
scalar FloodingNetwork.node[149].nic.mac1609_4 NumInternalContention 0
scalar FloodingNetwork.node[149].nic.mac1609_4 totalBusyTime 0.007406
scalar FloodingNetwork.node[149].nic.mac1609_4 retriesExceeded:count 0
attr source org_car2x_veins_modules_mac_sigRetriesExceeded
scalar FloodingNetwork.node[149].nic.mac1609_4 sentAcks:count 0
attr source org_car2x_veins_modules_mac_sigSentAck
scalar FloodingNetwork.node[149].nic.mac1609_4 sentPackets:count 22
attr source org_car2x_veins_modules_mac_sigSentPacket
scalar FloodingNetwork.node[149].nic.mac1609_4 collisions:count 0
attr source org_car2x_veins_modules_mac_sigCollision
scalar FloodingNetwork.node[149].nic.mac1609_4 channelBusy:timeavg 0.00033062489765393
attr source org_car2x_veins_modules_mac_sigChannelBusy
scalar FloodingNetwork.node[149].veinsmobility startTime 3.6
scalar FloodingNetwork.node[149].veinsmobility totalTime 22.4
scalar FloodingNetwork.node[149].veinsmobility stopTime 26.000006933997
scalar FloodingNetwork.node[149].veinsmobility minSpeed 4.4096060949461
scalar FloodingNetwork.node[149].veinsmobility maxSpeed 12.490713225903
scalar FloodingNetwork.node[149].veinsmobility totalDistance 186.89390808836
scalar FloodingNetwork.node[149].veinsmobility totalCO2Emission 67.903240681344
scalar FloodingNetwork.node[15].appl generatedWSMs 0
scalar FloodingNetwork.node[15].appl receivedWSMs 0
scalar FloodingNetwork.node[15].appl generatedBSMs 25
scalar FloodingNetwork.node[15].appl receivedBSMs 0
scalar FloodingNetwork.node[15].appl generatedWSAs 0
scalar FloodingNetwork.node[15].appl receivedWSAs 0
scalar FloodingNetwork.node[15].appl #duplicates 0
scalar FloodingNetwork.node[15].appl #numSent 0
scalar FloodingNetwork.node[15].nic.phy80211p busyTime 4.6129019360545e-05
scalar FloodingNetwork.node[15].nic.mac1609_4 ReceivedUnicastPackets 0
scalar FloodingNetwork.node[15].nic.mac1609_4 ReceivedBroadcasts 9
scalar FloodingNetwork.node[15].nic.mac1609_4 SentPackets 25
scalar FloodingNetwork.node[15].nic.mac1609_4 SentAcknowledgements 0
scalar FloodingNetwork.node[15].nic.mac1609_4 RetriesExceeded 0
scalar FloodingNetwork.node[15].nic.mac1609_4 SNIRLostPackets 2
scalar FloodingNetwork.node[15].nic.mac1609_4 RXTXLostPackets 0
scalar FloodingNetwork.node[15].nic.mac1609_4 TotalLostPackets 2
scalar FloodingNetwork.node[15].nic.mac1609_4 DroppedPacketsInMac 0
scalar FloodingNetwork.node[15].nic.mac1609_4 TooLittleTime 0
scalar FloodingNetwork.node[15].nic.mac1609_4 TimesIntoBackoff 50
scalar FloodingNetwork.node[15].nic.mac1609_4 SlotsBackoff 41
scalar FloodingNetwork.node[15].nic.mac1609_4 NumInternalContention 0
scalar FloodingNetwork.node[15].nic.mac1609_4 totalBusyTime 0.003769
scalar FloodingNetwork.node[15].nic.mac1609_4 retriesExceeded:count 0
attr source org_car2x_veins_modules_mac_sigRetriesExceeded
scalar FloodingNetwork.node[15].nic.mac1609_4 sentAcks:count 0
attr source org_car2x_veins_modules_mac_sigSentAck
scalar FloodingNetwork.node[15].nic.mac1609_4 sentPackets:count 25
attr source org_car2x_veins_modules_mac_sigSentPacket
scalar FloodingNetwork.node[15].nic.mac1609_4 collisions:count 0
attr source org_car2x_veins_modules_mac_sigCollision
scalar FloodingNetwork.node[15].nic.mac1609_4 channelBusy:timeavg 0.0001519757639597
attr source org_car2x_veins_modules_mac_sigChannelBusy
scalar FloodingNetwork.node[15].veinsmobility startTime 1.2
scalar FloodingNetwork.node[15].veinsmobility totalTime 24.8
scalar FloodingNetwork.node[15].veinsmobility stopTime 26.000006933997
scalar FloodingNetwork.node[15].veinsmobility minSpeed 5.7357284040779
scalar FloodingNetwork.node[15].veinsmobility maxSpeed 15.39553510908
scalar FloodingNetwork.node[15].veinsmobility totalDistance 333.96295515295
scalar FloodingNetwork.node[15].veinsmobility totalCO2Emission 76.960908934303
scalar FloodingNetwork.node[16].appl generatedWSMs 0
scalar FloodingNetwork.node[16].appl receivedWSMs 0
scalar FloodingNetwork.node[16].appl generatedBSMs 24
scalar FloodingNetwork.node[16].appl receivedBSMs 0
scalar FloodingNetwork.node[16].appl generatedWSAs 0
scalar FloodingNetwork.node[16].appl receivedWSAs 0
scalar FloodingNetwork.node[16].appl #duplicates 0
scalar FloodingNetwork.node[16].appl #numSent 0
scalar FloodingNetwork.node[16].nic.phy80211p busyTime 0.00049483857132221
scalar FloodingNetwork.node[16].nic.mac1609_4 ReceivedUnicastPackets 0
scalar FloodingNetwork.node[16].nic.mac1609_4 ReceivedBroadcasts 118
scalar FloodingNetwork.node[16].nic.mac1609_4 SentPackets 24
scalar FloodingNetwork.node[16].nic.mac1609_4 SentAcknowledgements 0
scalar FloodingNetwork.node[16].nic.mac1609_4 RetriesExceeded 0
scalar FloodingNetwork.node[16].nic.mac1609_4 SNIRLostPackets 0
scalar FloodingNetwork.node[16].nic.mac1609_4 RXTXLostPackets 0
scalar FloodingNetwork.node[16].nic.mac1609_4 TotalLostPackets 0
scalar FloodingNetwork.node[16].nic.mac1609_4 DroppedPacketsInMac 0
scalar FloodingNetwork.node[16].nic.mac1609_4 TooLittleTime 0
scalar FloodingNetwork.node[16].nic.mac1609_4 TimesIntoBackoff 48
scalar FloodingNetwork.node[16].nic.mac1609_4 SlotsBackoff 30
scalar FloodingNetwork.node[16].nic.mac1609_4 NumInternalContention 0
scalar FloodingNetwork.node[16].nic.mac1609_4 totalBusyTime 0.014792
scalar FloodingNetwork.node[16].nic.mac1609_4 retriesExceeded:count 0
attr source org_car2x_veins_modules_mac_sigRetriesExceeded
scalar FloodingNetwork.node[16].nic.mac1609_4 sentAcks:count 0
attr source org_car2x_veins_modules_mac_sigSentAck
scalar FloodingNetwork.node[16].nic.mac1609_4 sentPackets:count 24
attr source org_car2x_veins_modules_mac_sigSentPacket
scalar FloodingNetwork.node[16].nic.mac1609_4 collisions:count 0
attr source org_car2x_veins_modules_mac_sigCollision
scalar FloodingNetwork.node[16].nic.mac1609_4 channelBusy:timeavg 0.0005964514461374
attr source org_car2x_veins_modules_mac_sigChannelBusy
scalar FloodingNetwork.node[16].veinsmobility startTime 1.2
scalar FloodingNetwork.node[16].veinsmobility totalTime 24.8
scalar FloodingNetwork.node[16].veinsmobility stopTime 26.000006933997
scalar FloodingNetwork.node[16].veinsmobility minSpeed 5.754481259199
scalar FloodingNetwork.node[16].veinsmobility maxSpeed 12.212129860651
scalar FloodingNetwork.node[16].veinsmobility totalDistance 259.50340744196
scalar FloodingNetwork.node[16].veinsmobility totalCO2Emission 81.698836826977
scalar FloodingNetwork.node[17].appl generatedWSMs 0
scalar FloodingNetwork.node[17].appl receivedWSMs 0
scalar FloodingNetwork.node[17].appl generatedBSMs 24
scalar FloodingNetwork.node[17].appl receivedBSMs 0
scalar FloodingNetwork.node[17].appl generatedWSAs 0
scalar FloodingNetwork.node[17].appl receivedWSAs 0
scalar FloodingNetwork.node[17].appl #duplicates 0
scalar FloodingNetwork.node[17].appl #numSent 0
scalar FloodingNetwork.node[17].nic.phy80211p busyTime 0.00024322573844651
scalar FloodingNetwork.node[17].nic.mac1609_4 ReceivedUnicastPackets 0
scalar FloodingNetwork.node[17].nic.mac1609_4 ReceivedBroadcasts 50
scalar FloodingNetwork.node[17].nic.mac1609_4 SentPackets 24
scalar FloodingNetwork.node[17].nic.mac1609_4 SentAcknowledgements 0
scalar FloodingNetwork.node[17].nic.mac1609_4 RetriesExceeded 0
scalar FloodingNetwork.node[17].nic.mac1609_4 SNIRLostPackets 8
scalar FloodingNetwork.node[17].nic.mac1609_4 RXTXLostPackets 0
scalar FloodingNetwork.node[17].nic.mac1609_4 TotalLostPackets 8
scalar FloodingNetwork.node[17].nic.mac1609_4 DroppedPacketsInMac 0
scalar FloodingNetwork.node[17].nic.mac1609_4 TooLittleTime 0
scalar FloodingNetwork.node[17].nic.mac1609_4 TimesIntoBackoff 24
scalar FloodingNetwork.node[17].nic.mac1609_4 SlotsBackoff 37
scalar FloodingNetwork.node[17].nic.mac1609_4 NumInternalContention 0
scalar FloodingNetwork.node[17].nic.mac1609_4 totalBusyTime 0.008552
scalar FloodingNetwork.node[17].nic.mac1609_4 retriesExceeded:count 0
attr source org_car2x_veins_modules_mac_sigRetriesExceeded
scalar FloodingNetwork.node[17].nic.mac1609_4 sentAcks:count 0
attr source org_car2x_veins_modules_mac_sigSentAck
scalar FloodingNetwork.node[17].nic.mac1609_4 sentPackets:count 24
attr source org_car2x_veins_modules_mac_sigSentPacket
scalar FloodingNetwork.node[17].nic.mac1609_4 collisions:count 0
attr source org_car2x_veins_modules_mac_sigCollision
scalar FloodingNetwork.node[17].nic.mac1609_4 channelBusy:timeavg 0.0003448386132617
attr source org_car2x_veins_modules_mac_sigChannelBusy
scalar FloodingNetwork.node[17].veinsmobility startTime 1.2
scalar FloodingNetwork.node[17].veinsmobility totalTime 24.8
scalar FloodingNetwork.node[17].veinsmobility stopTime 26.000006933997
scalar FloodingNetwork.node[17].veinsmobility minSpeed 5.8031800226876
scalar FloodingNetwork.node[17].veinsmobility maxSpeed 13.517450018306
scalar FloodingNetwork.node[17].veinsmobility totalDistance 279.65642391891
scalar FloodingNetwork.node[17].veinsmobility totalCO2Emission 93.498731692349
scalar FloodingNetwork.node[18].appl generatedWSMs 0
scalar FloodingNetwork.node[18].appl receivedWSMs 0
scalar FloodingNetwork.node[18].appl generatedBSMs 25
scalar FloodingNetwork.node[18].appl receivedBSMs 0
scalar FloodingNetwork.node[18].appl generatedWSAs 0
scalar FloodingNetwork.node[18].appl receivedWSAs 0
scalar FloodingNetwork.node[18].appl #duplicates 0
scalar FloodingNetwork.node[18].appl #numSent 0
scalar FloodingNetwork.node[18].nic.phy80211p busyTime 0.00011741932200866
scalar FloodingNetwork.node[18].nic.mac1609_4 ReceivedUnicastPackets 0
scalar FloodingNetwork.node[18].nic.mac1609_4 ReceivedBroadcasts 28
scalar FloodingNetwork.node[18].nic.mac1609_4 SentPackets 25
scalar FloodingNetwork.node[18].nic.mac1609_4 SentAcknowledgements 0
scalar FloodingNetwork.node[18].nic.mac1609_4 RetriesExceeded 0
scalar FloodingNetwork.node[18].nic.mac1609_4 SNIRLostPackets 0
scalar FloodingNetwork.node[18].nic.mac1609_4 RXTXLostPackets 0
scalar FloodingNetwork.node[18].nic.mac1609_4 TotalLostPackets 0
scalar FloodingNetwork.node[18].nic.mac1609_4 DroppedPacketsInMac 0
scalar FloodingNetwork.node[18].nic.mac1609_4 TooLittleTime 0
scalar FloodingNetwork.node[18].nic.mac1609_4 TimesIntoBackoff 25
scalar FloodingNetwork.node[18].nic.mac1609_4 SlotsBackoff 41
scalar FloodingNetwork.node[18].nic.mac1609_4 NumInternalContention 0
scalar FloodingNetwork.node[18].nic.mac1609_4 totalBusyTime 0.005537
scalar FloodingNetwork.node[18].nic.mac1609_4 retriesExceeded:count 0
attr source org_car2x_veins_modules_mac_sigRetriesExceeded
scalar FloodingNetwork.node[18].nic.mac1609_4 sentAcks:count 0
attr source org_car2x_veins_modules_mac_sigSentAck
scalar FloodingNetwork.node[18].nic.mac1609_4 sentPackets:count 25
attr source org_car2x_veins_modules_mac_sigSentPacket
scalar FloodingNetwork.node[18].nic.mac1609_4 collisions:count 0
attr source org_car2x_veins_modules_mac_sigCollision
scalar FloodingNetwork.node[18].nic.mac1609_4 channelBusy:timeavg 0.00022326606660781
attr source org_car2x_veins_modules_mac_sigChannelBusy
scalar FloodingNetwork.node[18].veinsmobility startTime 1.2
scalar FloodingNetwork.node[18].veinsmobility totalTime 24.8
scalar FloodingNetwork.node[18].veinsmobility stopTime 26.000006933997
scalar FloodingNetwork.node[18].veinsmobility minSpeed 5.7692075056886
scalar FloodingNetwork.node[18].veinsmobility maxSpeed 14.383614190564
scalar FloodingNetwork.node[18].veinsmobility totalDistance 281.56044121602
scalar FloodingNetwork.node[18].veinsmobility totalCO2Emission 100.51122839881
scalar FloodingNetwork.node[19].appl generatedWSMs 0
scalar FloodingNetwork.node[19].appl receivedWSMs 0
scalar FloodingNetwork.node[19].appl generatedBSMs 24
scalar FloodingNetwork.node[19].appl receivedBSMs 0
scalar FloodingNetwork.node[19].appl generatedWSAs 0
scalar FloodingNetwork.node[19].appl receivedWSAs 0
scalar FloodingNetwork.node[19].appl #duplicates 0
scalar FloodingNetwork.node[19].appl #numSent 0
scalar FloodingNetwork.node[19].nic.phy80211p busyTime 0.00018451607744218
scalar FloodingNetwork.node[19].nic.mac1609_4 ReceivedUnicastPackets 0
scalar FloodingNetwork.node[19].nic.mac1609_4 ReceivedBroadcasts 44
scalar FloodingNetwork.node[19].nic.mac1609_4 SentPackets 24
scalar FloodingNetwork.node[19].nic.mac1609_4 SentAcknowledgements 0
scalar FloodingNetwork.node[19].nic.mac1609_4 RetriesExceeded 0
scalar FloodingNetwork.node[19].nic.mac1609_4 SNIRLostPackets 0
scalar FloodingNetwork.node[19].nic.mac1609_4 RXTXLostPackets 0
scalar FloodingNetwork.node[19].nic.mac1609_4 TotalLostPackets 0
scalar FloodingNetwork.node[19].nic.mac1609_4 DroppedPacketsInMac 0
scalar FloodingNetwork.node[19].nic.mac1609_4 TooLittleTime 0
scalar FloodingNetwork.node[19].nic.mac1609_4 TimesIntoBackoff 24
scalar FloodingNetwork.node[19].nic.mac1609_4 SlotsBackoff 31
scalar FloodingNetwork.node[19].nic.mac1609_4 NumInternalContention 0
scalar FloodingNetwork.node[19].nic.mac1609_4 totalBusyTime 0.007096
scalar FloodingNetwork.node[19].nic.mac1609_4 retriesExceeded:count 0
attr source org_car2x_veins_modules_mac_sigRetriesExceeded
scalar FloodingNetwork.node[19].nic.mac1609_4 sentAcks:count 0
attr source org_car2x_veins_modules_mac_sigSentAck
scalar FloodingNetwork.node[19].nic.mac1609_4 sentPackets:count 24
attr source org_car2x_veins_modules_mac_sigSentPacket
scalar FloodingNetwork.node[19].nic.mac1609_4 collisions:count 0
attr source org_car2x_veins_modules_mac_sigCollision
scalar FloodingNetwork.node[19].nic.mac1609_4 channelBusy:timeavg 0.00028612895225737
attr source org_car2x_veins_modules_mac_sigChannelBusy
scalar FloodingNetwork.node[19].veinsmobility startTime 1.2
scalar FloodingNetwork.node[19].veinsmobility totalTime 24.8
scalar FloodingNetwork.node[19].veinsmobility stopTime 26.000006933997
scalar FloodingNetwork.node[19].veinsmobility minSpeed 5.8600959385929
scalar FloodingNetwork.node[19].veinsmobility maxSpeed 15.896363256462
scalar FloodingNetwork.node[19].veinsmobility totalDistance 284.93436307214
scalar FloodingNetwork.node[19].veinsmobility totalCO2Emission 113.02169963335
scalar FloodingNetwork.node[125].appl generatedWSMs 0
scalar FloodingNetwork.node[125].appl receivedWSMs 0
scalar FloodingNetwork.node[125].appl generatedBSMs 25
scalar FloodingNetwork.node[125].appl receivedBSMs 0
scalar FloodingNetwork.node[125].appl generatedWSAs 0
scalar FloodingNetwork.node[125].appl receivedWSAs 0
scalar FloodingNetwork.node[125].appl #duplicates 0
scalar FloodingNetwork.node[125].appl #numSent 0
scalar FloodingNetwork.node[125].nic.phy80211p busyTime 0.00011508193450911
scalar FloodingNetwork.node[125].nic.mac1609_4 ReceivedUnicastPackets 0
scalar FloodingNetwork.node[125].nic.mac1609_4 ReceivedBroadcasts 25
scalar FloodingNetwork.node[125].nic.mac1609_4 SentPackets 25
scalar FloodingNetwork.node[125].nic.mac1609_4 SentAcknowledgements 0
scalar FloodingNetwork.node[125].nic.mac1609_4 RetriesExceeded 0
scalar FloodingNetwork.node[125].nic.mac1609_4 SNIRLostPackets 2
scalar FloodingNetwork.node[125].nic.mac1609_4 RXTXLostPackets 0
scalar FloodingNetwork.node[125].nic.mac1609_4 TotalLostPackets 2
scalar FloodingNetwork.node[125].nic.mac1609_4 DroppedPacketsInMac 0
scalar FloodingNetwork.node[125].nic.mac1609_4 TooLittleTime 0
scalar FloodingNetwork.node[125].nic.mac1609_4 TimesIntoBackoff 25
scalar FloodingNetwork.node[125].nic.mac1609_4 SlotsBackoff 30
scalar FloodingNetwork.node[125].nic.mac1609_4 NumInternalContention 0
scalar FloodingNetwork.node[125].nic.mac1609_4 totalBusyTime 0.005433
scalar FloodingNetwork.node[125].nic.mac1609_4 retriesExceeded:count 0
attr source org_car2x_veins_modules_mac_sigRetriesExceeded
scalar FloodingNetwork.node[125].nic.mac1609_4 sentAcks:count 0
attr source org_car2x_veins_modules_mac_sigSentAck
scalar FloodingNetwork.node[125].nic.mac1609_4 sentPackets:count 25
attr source org_car2x_veins_modules_mac_sigSentPacket
scalar FloodingNetwork.node[125].nic.mac1609_4 collisions:count 0
attr source org_car2x_veins_modules_mac_sigCollision
scalar FloodingNetwork.node[125].nic.mac1609_4 channelBusy:timeavg 0.00022266387114956
attr source org_car2x_veins_modules_mac_sigChannelBusy
scalar FloodingNetwork.node[125].veinsmobility startTime 1.6
scalar FloodingNetwork.node[125].veinsmobility totalTime 24.4
scalar FloodingNetwork.node[125].veinsmobility stopTime 26.000006933997
scalar FloodingNetwork.node[125].veinsmobility minSpeed 5.7296454545893
scalar FloodingNetwork.node[125].veinsmobility maxSpeed 14.556268405907
scalar FloodingNetwork.node[125].veinsmobility totalDistance 305.50778446367
scalar FloodingNetwork.node[125].veinsmobility totalCO2Emission 77.284114506666
scalar FloodingNetwork.node[20].appl generatedWSMs 0
scalar FloodingNetwork.node[20].appl receivedWSMs 0
scalar FloodingNetwork.node[20].appl generatedBSMs 25
scalar FloodingNetwork.node[20].appl receivedBSMs 0
scalar FloodingNetwork.node[20].appl generatedWSAs 0
scalar FloodingNetwork.node[20].appl receivedWSAs 0
scalar FloodingNetwork.node[20].appl #duplicates 0
scalar FloodingNetwork.node[20].appl #numSent 0
scalar FloodingNetwork.node[20].nic.phy80211p busyTime 0
scalar FloodingNetwork.node[20].nic.mac1609_4 ReceivedUnicastPackets 0
scalar FloodingNetwork.node[20].nic.mac1609_4 ReceivedBroadcasts 0
scalar FloodingNetwork.node[20].nic.mac1609_4 SentPackets 25
scalar FloodingNetwork.node[20].nic.mac1609_4 SentAcknowledgements 0
scalar FloodingNetwork.node[20].nic.mac1609_4 RetriesExceeded 0
scalar FloodingNetwork.node[20].nic.mac1609_4 SNIRLostPackets 0
scalar FloodingNetwork.node[20].nic.mac1609_4 RXTXLostPackets 0
scalar FloodingNetwork.node[20].nic.mac1609_4 TotalLostPackets 0
scalar FloodingNetwork.node[20].nic.mac1609_4 DroppedPacketsInMac 0
scalar FloodingNetwork.node[20].nic.mac1609_4 TooLittleTime 0
scalar FloodingNetwork.node[20].nic.mac1609_4 TimesIntoBackoff 25
scalar FloodingNetwork.node[20].nic.mac1609_4 SlotsBackoff 40
scalar FloodingNetwork.node[20].nic.mac1609_4 NumInternalContention 0
scalar FloodingNetwork.node[20].nic.mac1609_4 totalBusyTime 0.002625
scalar FloodingNetwork.node[20].nic.mac1609_4 retriesExceeded:count 0
attr source org_car2x_veins_modules_mac_sigRetriesExceeded
scalar FloodingNetwork.node[20].nic.mac1609_4 sentAcks:count 0
attr source org_car2x_veins_modules_mac_sigSentAck
scalar FloodingNetwork.node[20].nic.mac1609_4 sentPackets:count 25
attr source org_car2x_veins_modules_mac_sigSentPacket
scalar FloodingNetwork.node[20].nic.mac1609_4 collisions:count 0
attr source org_car2x_veins_modules_mac_sigCollision
scalar FloodingNetwork.node[20].nic.mac1609_4 channelBusy:timeavg 0.00010584674459915
attr source org_car2x_veins_modules_mac_sigChannelBusy
scalar FloodingNetwork.node[20].veinsmobility startTime 1.2
scalar FloodingNetwork.node[20].veinsmobility totalTime 24.8
scalar FloodingNetwork.node[20].veinsmobility stopTime 26.000006933997
scalar FloodingNetwork.node[20].veinsmobility minSpeed 5.7445763715712
scalar FloodingNetwork.node[20].veinsmobility maxSpeed 12.561113692503
scalar FloodingNetwork.node[20].veinsmobility totalDistance 299.43534830649
scalar FloodingNetwork.node[20].veinsmobility totalCO2Emission 62.211155893889
scalar FloodingNetwork.node[21].appl generatedWSMs 0
scalar FloodingNetwork.node[21].appl receivedWSMs 0
scalar FloodingNetwork.node[21].appl generatedBSMs 24
scalar FloodingNetwork.node[21].appl receivedBSMs 0
scalar FloodingNetwork.node[21].appl generatedWSAs 0
scalar FloodingNetwork.node[21].appl receivedWSAs 0
scalar FloodingNetwork.node[21].appl #duplicates 0
scalar FloodingNetwork.node[21].appl #numSent 0
scalar FloodingNetwork.node[21].nic.phy80211p busyTime 6.2903208218925e-05
scalar FloodingNetwork.node[21].nic.mac1609_4 ReceivedUnicastPackets 0
scalar FloodingNetwork.node[21].nic.mac1609_4 ReceivedBroadcasts 13
scalar FloodingNetwork.node[21].nic.mac1609_4 SentPackets 24
scalar FloodingNetwork.node[21].nic.mac1609_4 SentAcknowledgements 0
scalar FloodingNetwork.node[21].nic.mac1609_4 RetriesExceeded 0
scalar FloodingNetwork.node[21].nic.mac1609_4 SNIRLostPackets 2
scalar FloodingNetwork.node[21].nic.mac1609_4 RXTXLostPackets 0
scalar FloodingNetwork.node[21].nic.mac1609_4 TotalLostPackets 2
scalar FloodingNetwork.node[21].nic.mac1609_4 DroppedPacketsInMac 0
scalar FloodingNetwork.node[21].nic.mac1609_4 TooLittleTime 0
scalar FloodingNetwork.node[21].nic.mac1609_4 TimesIntoBackoff 24
scalar FloodingNetwork.node[21].nic.mac1609_4 SlotsBackoff 30
scalar FloodingNetwork.node[21].nic.mac1609_4 NumInternalContention 0
scalar FloodingNetwork.node[21].nic.mac1609_4 totalBusyTime 0.00408
scalar FloodingNetwork.node[21].nic.mac1609_4 retriesExceeded:count 0
attr source org_car2x_veins_modules_mac_sigRetriesExceeded
scalar FloodingNetwork.node[21].nic.mac1609_4 sentAcks:count 0
attr source org_car2x_veins_modules_mac_sigSentAck
scalar FloodingNetwork.node[21].nic.mac1609_4 sentPackets:count 24
attr source org_car2x_veins_modules_mac_sigSentPacket
scalar FloodingNetwork.node[21].nic.mac1609_4 collisions:count 0
attr source org_car2x_veins_modules_mac_sigCollision
scalar FloodingNetwork.node[21].nic.mac1609_4 channelBusy:timeavg 0.00016451608303411
attr source org_car2x_veins_modules_mac_sigChannelBusy
scalar FloodingNetwork.node[21].veinsmobility startTime 1.2
scalar FloodingNetwork.node[21].veinsmobility totalTime 24.8
scalar FloodingNetwork.node[21].veinsmobility stopTime 26.000006933997
scalar FloodingNetwork.node[21].veinsmobility minSpeed 5.9481730150747
scalar FloodingNetwork.node[21].veinsmobility maxSpeed 11.121804057436
scalar FloodingNetwork.node[21].veinsmobility totalDistance 262.41137208584
scalar FloodingNetwork.node[21].veinsmobility totalCO2Emission 63.444308335391
scalar FloodingNetwork.node[22].appl generatedWSMs 0
scalar FloodingNetwork.node[22].appl receivedWSMs 0
scalar FloodingNetwork.node[22].appl generatedBSMs 25
scalar FloodingNetwork.node[22].appl receivedBSMs 0
scalar FloodingNetwork.node[22].appl generatedWSAs 0
scalar FloodingNetwork.node[22].appl receivedWSAs 0
scalar FloodingNetwork.node[22].appl #duplicates 0
scalar FloodingNetwork.node[22].appl #numSent 0
scalar FloodingNetwork.node[22].nic.phy80211p busyTime 0.00014258060529623
scalar FloodingNetwork.node[22].nic.mac1609_4 ReceivedUnicastPackets 0
scalar FloodingNetwork.node[22].nic.mac1609_4 ReceivedBroadcasts 32
scalar FloodingNetwork.node[22].nic.mac1609_4 SentPackets 25
scalar FloodingNetwork.node[22].nic.mac1609_4 SentAcknowledgements 0
scalar FloodingNetwork.node[22].nic.mac1609_4 RetriesExceeded 0
scalar FloodingNetwork.node[22].nic.mac1609_4 SNIRLostPackets 2
scalar FloodingNetwork.node[22].nic.mac1609_4 RXTXLostPackets 0
scalar FloodingNetwork.node[22].nic.mac1609_4 TotalLostPackets 2
scalar FloodingNetwork.node[22].nic.mac1609_4 DroppedPacketsInMac 0
scalar FloodingNetwork.node[22].nic.mac1609_4 TooLittleTime 0
scalar FloodingNetwork.node[22].nic.mac1609_4 TimesIntoBackoff 25
scalar FloodingNetwork.node[22].nic.mac1609_4 SlotsBackoff 40
scalar FloodingNetwork.node[22].nic.mac1609_4 NumInternalContention 0
scalar FloodingNetwork.node[22].nic.mac1609_4 totalBusyTime 0.006161
scalar FloodingNetwork.node[22].nic.mac1609_4 retriesExceeded:count 0
attr source org_car2x_veins_modules_mac_sigRetriesExceeded
scalar FloodingNetwork.node[22].nic.mac1609_4 sentAcks:count 0
attr source org_car2x_veins_modules_mac_sigSentAck
scalar FloodingNetwork.node[22].nic.mac1609_4 sentPackets:count 25
attr source org_car2x_veins_modules_mac_sigSentPacket
scalar FloodingNetwork.node[22].nic.mac1609_4 collisions:count 0
attr source org_car2x_veins_modules_mac_sigCollision
scalar FloodingNetwork.node[22].nic.mac1609_4 channelBusy:timeavg 0.00024842734989538
attr source org_car2x_veins_modules_mac_sigChannelBusy
scalar FloodingNetwork.node[22].veinsmobility startTime 1.2
scalar FloodingNetwork.node[22].veinsmobility totalTime 24.8
scalar FloodingNetwork.node[22].veinsmobility stopTime 26.000006933997
scalar FloodingNetwork.node[22].veinsmobility minSpeed 5.7688679814271
scalar FloodingNetwork.node[22].veinsmobility maxSpeed 14.385698762388
scalar FloodingNetwork.node[22].veinsmobility totalDistance 326.50949163475
scalar FloodingNetwork.node[22].veinsmobility totalCO2Emission 68.359531665683
scalar FloodingNetwork.node[23].appl generatedWSMs 0
scalar FloodingNetwork.node[23].appl receivedWSMs 0
scalar FloodingNetwork.node[23].appl generatedBSMs 25
scalar FloodingNetwork.node[23].appl receivedBSMs 0
scalar FloodingNetwork.node[23].appl generatedWSAs 0
scalar FloodingNetwork.node[23].appl receivedWSAs 0
scalar FloodingNetwork.node[23].appl #duplicates 0
scalar FloodingNetwork.node[23].appl #numSent 0
scalar FloodingNetwork.node[23].nic.phy80211p busyTime 4.6129019360545e-05
scalar FloodingNetwork.node[23].nic.mac1609_4 ReceivedUnicastPackets 0
scalar FloodingNetwork.node[23].nic.mac1609_4 ReceivedBroadcasts 11
scalar FloodingNetwork.node[23].nic.mac1609_4 SentPackets 25
scalar FloodingNetwork.node[23].nic.mac1609_4 SentAcknowledgements 0
scalar FloodingNetwork.node[23].nic.mac1609_4 RetriesExceeded 0
scalar FloodingNetwork.node[23].nic.mac1609_4 SNIRLostPackets 0
scalar FloodingNetwork.node[23].nic.mac1609_4 RXTXLostPackets 0
scalar FloodingNetwork.node[23].nic.mac1609_4 TotalLostPackets 0
scalar FloodingNetwork.node[23].nic.mac1609_4 DroppedPacketsInMac 0
scalar FloodingNetwork.node[23].nic.mac1609_4 TooLittleTime 0
scalar FloodingNetwork.node[23].nic.mac1609_4 TimesIntoBackoff 25
scalar FloodingNetwork.node[23].nic.mac1609_4 SlotsBackoff 37
scalar FloodingNetwork.node[23].nic.mac1609_4 NumInternalContention 0
scalar FloodingNetwork.node[23].nic.mac1609_4 totalBusyTime 0.003769
scalar FloodingNetwork.node[23].nic.mac1609_4 retriesExceeded:count 0
attr source org_car2x_veins_modules_mac_sigRetriesExceeded
scalar FloodingNetwork.node[23].nic.mac1609_4 sentAcks:count 0
attr source org_car2x_veins_modules_mac_sigSentAck
scalar FloodingNetwork.node[23].nic.mac1609_4 sentPackets:count 25
attr source org_car2x_veins_modules_mac_sigSentPacket
scalar FloodingNetwork.node[23].nic.mac1609_4 collisions:count 0
attr source org_car2x_veins_modules_mac_sigCollision
scalar FloodingNetwork.node[23].nic.mac1609_4 channelBusy:timeavg 0.0001519757639597
attr source org_car2x_veins_modules_mac_sigChannelBusy
scalar FloodingNetwork.node[23].veinsmobility startTime 1.2
scalar FloodingNetwork.node[23].veinsmobility totalTime 24.8
scalar FloodingNetwork.node[23].veinsmobility stopTime 26.000006933997
scalar FloodingNetwork.node[23].veinsmobility minSpeed 5.7477477680503
scalar FloodingNetwork.node[23].veinsmobility maxSpeed 11.684083153542
scalar FloodingNetwork.node[23].veinsmobility totalDistance 260.64142450758
scalar FloodingNetwork.node[23].veinsmobility totalCO2Emission 78.365215832362
scalar FloodingNetwork.node[24].appl generatedWSMs 0
scalar FloodingNetwork.node[24].appl receivedWSMs 0
scalar FloodingNetwork.node[24].appl generatedBSMs 25
scalar FloodingNetwork.node[24].appl receivedBSMs 0
scalar FloodingNetwork.node[24].appl generatedWSAs 0
scalar FloodingNetwork.node[24].appl receivedWSAs 0
scalar FloodingNetwork.node[24].appl #duplicates 0
scalar FloodingNetwork.node[24].appl #numSent 0
scalar FloodingNetwork.node[24].nic.phy80211p busyTime 5.870966100433e-05
scalar FloodingNetwork.node[24].nic.mac1609_4 ReceivedUnicastPackets 0
scalar FloodingNetwork.node[24].nic.mac1609_4 ReceivedBroadcasts 14
scalar FloodingNetwork.node[24].nic.mac1609_4 SentPackets 25
scalar FloodingNetwork.node[24].nic.mac1609_4 SentAcknowledgements 0
scalar FloodingNetwork.node[24].nic.mac1609_4 RetriesExceeded 0
scalar FloodingNetwork.node[24].nic.mac1609_4 SNIRLostPackets 0
scalar FloodingNetwork.node[24].nic.mac1609_4 RXTXLostPackets 0
scalar FloodingNetwork.node[24].nic.mac1609_4 TotalLostPackets 0
scalar FloodingNetwork.node[24].nic.mac1609_4 DroppedPacketsInMac 0
scalar FloodingNetwork.node[24].nic.mac1609_4 TooLittleTime 0
scalar FloodingNetwork.node[24].nic.mac1609_4 TimesIntoBackoff 25
scalar FloodingNetwork.node[24].nic.mac1609_4 SlotsBackoff 35
scalar FloodingNetwork.node[24].nic.mac1609_4 NumInternalContention 0
scalar FloodingNetwork.node[24].nic.mac1609_4 totalBusyTime 0.004081
scalar FloodingNetwork.node[24].nic.mac1609_4 retriesExceeded:count 0
attr source org_car2x_veins_modules_mac_sigRetriesExceeded
scalar FloodingNetwork.node[24].nic.mac1609_4 sentAcks:count 0
attr source org_car2x_veins_modules_mac_sigSentAck
scalar FloodingNetwork.node[24].nic.mac1609_4 sentPackets:count 25
attr source org_car2x_veins_modules_mac_sigSentPacket
scalar FloodingNetwork.node[24].nic.mac1609_4 collisions:count 0
attr source org_car2x_veins_modules_mac_sigCollision
scalar FloodingNetwork.node[24].nic.mac1609_4 channelBusy:timeavg 0.00016455640560348
attr source org_car2x_veins_modules_mac_sigChannelBusy
scalar FloodingNetwork.node[24].veinsmobility startTime 1.2
scalar FloodingNetwork.node[24].veinsmobility totalTime 24.8
scalar FloodingNetwork.node[24].veinsmobility stopTime 26.000006933997
scalar FloodingNetwork.node[24].veinsmobility minSpeed 5.8604256306939
scalar FloodingNetwork.node[24].veinsmobility maxSpeed 13.571763156798
scalar FloodingNetwork.node[24].veinsmobility totalDistance 282.39716166959
scalar FloodingNetwork.node[24].veinsmobility totalCO2Emission 94.895014146515
scalar FloodingNetwork.node[25].appl generatedWSMs 0
scalar FloodingNetwork.node[25].appl receivedWSMs 0
scalar FloodingNetwork.node[25].appl generatedBSMs 25
scalar FloodingNetwork.node[25].appl receivedBSMs 0
scalar FloodingNetwork.node[25].appl generatedWSAs 0
scalar FloodingNetwork.node[25].appl receivedWSAs 0
scalar FloodingNetwork.node[25].appl #duplicates 0
scalar FloodingNetwork.node[25].appl #numSent 0
scalar FloodingNetwork.node[25].nic.phy80211p busyTime 1.677418885838e-05
scalar FloodingNetwork.node[25].nic.mac1609_4 ReceivedUnicastPackets 0
scalar FloodingNetwork.node[25].nic.mac1609_4 ReceivedBroadcasts 0
scalar FloodingNetwork.node[25].nic.mac1609_4 SentPackets 25
scalar FloodingNetwork.node[25].nic.mac1609_4 SentAcknowledgements 0
scalar FloodingNetwork.node[25].nic.mac1609_4 RetriesExceeded 0
scalar FloodingNetwork.node[25].nic.mac1609_4 SNIRLostPackets 4
scalar FloodingNetwork.node[25].nic.mac1609_4 RXTXLostPackets 0
scalar FloodingNetwork.node[25].nic.mac1609_4 TotalLostPackets 4
scalar FloodingNetwork.node[25].nic.mac1609_4 DroppedPacketsInMac 0
scalar FloodingNetwork.node[25].nic.mac1609_4 TooLittleTime 0
scalar FloodingNetwork.node[25].nic.mac1609_4 TimesIntoBackoff 50
scalar FloodingNetwork.node[25].nic.mac1609_4 SlotsBackoff 34
scalar FloodingNetwork.node[25].nic.mac1609_4 NumInternalContention 0
scalar FloodingNetwork.node[25].nic.mac1609_4 totalBusyTime 0.003041
scalar FloodingNetwork.node[25].nic.mac1609_4 retriesExceeded:count 0
attr source org_car2x_veins_modules_mac_sigRetriesExceeded
scalar FloodingNetwork.node[25].nic.mac1609_4 sentAcks:count 0
attr source org_car2x_veins_modules_mac_sigSentAck
scalar FloodingNetwork.node[25].nic.mac1609_4 sentPackets:count 25
attr source org_car2x_veins_modules_mac_sigSentPacket
scalar FloodingNetwork.node[25].nic.mac1609_4 collisions:count 0
attr source org_car2x_veins_modules_mac_sigCollision
scalar FloodingNetwork.node[25].nic.mac1609_4 channelBusy:timeavg 0.00012262093345753
attr source org_car2x_veins_modules_mac_sigChannelBusy
scalar FloodingNetwork.node[25].veinsmobility startTime 1.2
scalar FloodingNetwork.node[25].veinsmobility totalTime 24.8
scalar FloodingNetwork.node[25].veinsmobility stopTime 26.000006933997
scalar FloodingNetwork.node[25].veinsmobility minSpeed 5.9964992115331
scalar FloodingNetwork.node[25].veinsmobility maxSpeed 11.817914352148
scalar FloodingNetwork.node[25].veinsmobility totalDistance 285.27368581553
scalar FloodingNetwork.node[25].veinsmobility totalCO2Emission 59.169459242899
scalar FloodingNetwork.node[26].appl generatedWSMs 0
scalar FloodingNetwork.node[26].appl receivedWSMs 0
scalar FloodingNetwork.node[26].appl generatedBSMs 25
scalar FloodingNetwork.node[26].appl receivedBSMs 0
scalar FloodingNetwork.node[26].appl generatedWSAs 0
scalar FloodingNetwork.node[26].appl receivedWSAs 0
scalar FloodingNetwork.node[26].appl #duplicates 0
scalar FloodingNetwork.node[26].appl #numSent 0
scalar FloodingNetwork.node[26].nic.phy80211p busyTime 0.00044451600474707
scalar FloodingNetwork.node[26].nic.mac1609_4 ReceivedUnicastPackets 0
scalar FloodingNetwork.node[26].nic.mac1609_4 ReceivedBroadcasts 106
scalar FloodingNetwork.node[26].nic.mac1609_4 SentPackets 25
scalar FloodingNetwork.node[26].nic.mac1609_4 SentAcknowledgements 0
scalar FloodingNetwork.node[26].nic.mac1609_4 RetriesExceeded 0
scalar FloodingNetwork.node[26].nic.mac1609_4 SNIRLostPackets 0
scalar FloodingNetwork.node[26].nic.mac1609_4 RXTXLostPackets 0
scalar FloodingNetwork.node[26].nic.mac1609_4 TotalLostPackets 0
scalar FloodingNetwork.node[26].nic.mac1609_4 DroppedPacketsInMac 0
scalar FloodingNetwork.node[26].nic.mac1609_4 TooLittleTime 0
scalar FloodingNetwork.node[26].nic.mac1609_4 TimesIntoBackoff 25
scalar FloodingNetwork.node[26].nic.mac1609_4 SlotsBackoff 40
scalar FloodingNetwork.node[26].nic.mac1609_4 NumInternalContention 0
[...]
scalar FloodingNetwork.node[118].veinsmobility maxSpeed 14.503248784952
scalar FloodingNetwork.node[118].veinsmobility totalDistance 227.31427204085
scalar FloodingNetwork.node[118].veinsmobility totalCO2Emission 93.836825004002
scalar FloodingNetwork.node[119].appl generatedWSMs 0
scalar FloodingNetwork.node[119].appl receivedWSMs 0
scalar FloodingNetwork.node[119].appl generatedBSMs 25
scalar FloodingNetwork.node[119].appl receivedBSMs 0
scalar FloodingNetwork.node[119].appl generatedWSAs 0
scalar FloodingNetwork.node[119].appl receivedWSAs 0
scalar FloodingNetwork.node[119].appl #duplicates 0
scalar FloodingNetwork.node[119].appl #numSent 0
scalar FloodingNetwork.node[119].nic.phy80211p busyTime 4.193547214595e-06
scalar FloodingNetwork.node[119].nic.mac1609_4 ReceivedUnicastPackets 0
scalar FloodingNetwork.node[119].nic.mac1609_4 ReceivedBroadcasts 0
scalar FloodingNetwork.node[119].nic.mac1609_4 SentPackets 25
scalar FloodingNetwork.node[119].nic.mac1609_4 SentAcknowledgements 0
scalar FloodingNetwork.node[119].nic.mac1609_4 RetriesExceeded 0
scalar FloodingNetwork.node[119].nic.mac1609_4 SNIRLostPackets 1
scalar FloodingNetwork.node[119].nic.mac1609_4 RXTXLostPackets 0
scalar FloodingNetwork.node[119].nic.mac1609_4 TotalLostPackets 1
scalar FloodingNetwork.node[119].nic.mac1609_4 DroppedPacketsInMac 0
scalar FloodingNetwork.node[119].nic.mac1609_4 TooLittleTime 0
scalar FloodingNetwork.node[119].nic.mac1609_4 TimesIntoBackoff 25
scalar FloodingNetwork.node[119].nic.mac1609_4 SlotsBackoff 25
scalar FloodingNetwork.node[119].nic.mac1609_4 NumInternalContention 0
scalar FloodingNetwork.node[119].nic.mac1609_4 totalBusyTime 0.002729
scalar FloodingNetwork.node[119].nic.mac1609_4 retriesExceeded:count 0
attr source org_car2x_veins_modules_mac_sigRetriesExceeded
scalar FloodingNetwork.node[119].nic.mac1609_4 sentAcks:count 0
attr source org_car2x_veins_modules_mac_sigSentAck
scalar FloodingNetwork.node[119].nic.mac1609_4 sentPackets:count 25
attr source org_car2x_veins_modules_mac_sigSentPacket
scalar FloodingNetwork.node[119].nic.mac1609_4 collisions:count 0
attr source org_car2x_veins_modules_mac_sigCollision
scalar FloodingNetwork.node[119].nic.mac1609_4 channelBusy:timeavg 0.00011004029181375
attr source org_car2x_veins_modules_mac_sigChannelBusy
scalar FloodingNetwork.node[119].veinsmobility startTime 1.2
scalar FloodingNetwork.node[119].veinsmobility totalTime 24.8
scalar FloodingNetwork.node[119].veinsmobility stopTime 26.000006933997
scalar FloodingNetwork.node[119].veinsmobility minSpeed 5.781265988575
scalar FloodingNetwork.node[119].veinsmobility maxSpeed 12.841435658843
scalar FloodingNetwork.node[119].veinsmobility totalDistance 298.61035605494
scalar FloodingNetwork.node[119].veinsmobility totalCO2Emission 65.495545530013
scalar FloodingNetwork.node[148].appl generatedWSMs 0
scalar FloodingNetwork.node[148].appl receivedWSMs 0
scalar FloodingNetwork.node[148].appl generatedBSMs 23
scalar FloodingNetwork.node[148].appl receivedBSMs 0
scalar FloodingNetwork.node[148].appl generatedWSAs 0
scalar FloodingNetwork.node[148].appl receivedWSAs 0
scalar FloodingNetwork.node[148].appl #duplicates 0
scalar FloodingNetwork.node[148].appl #numSent 0
scalar FloodingNetwork.node[148].nic.phy80211p busyTime 0.00020259734178314
scalar FloodingNetwork.node[148].nic.mac1609_4 ReceivedUnicastPackets 0
scalar FloodingNetwork.node[148].nic.mac1609_4 ReceivedBroadcasts 45
scalar FloodingNetwork.node[148].nic.mac1609_4 SentPackets 23
scalar FloodingNetwork.node[148].nic.mac1609_4 SentAcknowledgements 0
scalar FloodingNetwork.node[148].nic.mac1609_4 RetriesExceeded 0
scalar FloodingNetwork.node[148].nic.mac1609_4 SNIRLostPackets 0
scalar FloodingNetwork.node[148].nic.mac1609_4 RXTXLostPackets 0
scalar FloodingNetwork.node[148].nic.mac1609_4 TotalLostPackets 0
scalar FloodingNetwork.node[148].nic.mac1609_4 DroppedPacketsInMac 0
scalar FloodingNetwork.node[148].nic.mac1609_4 TooLittleTime 0
scalar FloodingNetwork.node[148].nic.mac1609_4 TimesIntoBackoff 23
scalar FloodingNetwork.node[148].nic.mac1609_4 SlotsBackoff 36
scalar FloodingNetwork.node[148].nic.mac1609_4 NumInternalContention 0
scalar FloodingNetwork.node[148].nic.mac1609_4 totalBusyTime 0.007095
scalar FloodingNetwork.node[148].nic.mac1609_4 retriesExceeded:count 0
attr source org_car2x_veins_modules_mac_sigRetriesExceeded
scalar FloodingNetwork.node[148].nic.mac1609_4 sentAcks:count 0
attr source org_car2x_veins_modules_mac_sigSentAck
scalar FloodingNetwork.node[148].nic.mac1609_4 sentPackets:count 23
attr source org_car2x_veins_modules_mac_sigSentPacket
scalar FloodingNetwork.node[148].nic.mac1609_4 collisions:count 0
attr source org_car2x_veins_modules_mac_sigCollision
scalar FloodingNetwork.node[148].nic.mac1609_4 channelBusy:timeavg 0.00030714276494688
attr source org_car2x_veins_modules_mac_sigChannelBusy
scalar FloodingNetwork.node[148].veinsmobility startTime 2.9
scalar FloodingNetwork.node[148].veinsmobility totalTime 23.1
scalar FloodingNetwork.node[148].veinsmobility stopTime 26.000006933997
scalar FloodingNetwork.node[148].veinsmobility minSpeed 5.7348949689072
scalar FloodingNetwork.node[148].veinsmobility maxSpeed 11.576250723191
scalar FloodingNetwork.node[148].veinsmobility totalDistance 200.70443804971
scalar FloodingNetwork.node[148].veinsmobility totalCO2Emission 66.057441173656
scalar FloodingNetwork.node[120].appl generatedWSMs 0
scalar FloodingNetwork.node[120].appl receivedWSMs 0
scalar FloodingNetwork.node[120].appl generatedBSMs 25
scalar FloodingNetwork.node[120].appl receivedBSMs 0
scalar FloodingNetwork.node[120].appl generatedWSAs 0
scalar FloodingNetwork.node[120].appl receivedWSAs 0
scalar FloodingNetwork.node[120].appl #duplicates 0
scalar FloodingNetwork.node[120].appl #numSent 0
scalar FloodingNetwork.node[120].nic.phy80211p busyTime 0.00012999996365245
scalar FloodingNetwork.node[120].nic.mac1609_4 ReceivedUnicastPackets 0
scalar FloodingNetwork.node[120].nic.mac1609_4 ReceivedBroadcasts 28
scalar FloodingNetwork.node[120].nic.mac1609_4 SentPackets 25
scalar FloodingNetwork.node[120].nic.mac1609_4 SentAcknowledgements 0
scalar FloodingNetwork.node[120].nic.mac1609_4 RetriesExceeded 0
scalar FloodingNetwork.node[120].nic.mac1609_4 SNIRLostPackets 3
scalar FloodingNetwork.node[120].nic.mac1609_4 RXTXLostPackets 0
scalar FloodingNetwork.node[120].nic.mac1609_4 TotalLostPackets 3
scalar FloodingNetwork.node[120].nic.mac1609_4 DroppedPacketsInMac 0
scalar FloodingNetwork.node[120].nic.mac1609_4 TooLittleTime 0
scalar FloodingNetwork.node[120].nic.mac1609_4 TimesIntoBackoff 25
scalar FloodingNetwork.node[120].nic.mac1609_4 SlotsBackoff 37
scalar FloodingNetwork.node[120].nic.mac1609_4 NumInternalContention 0
scalar FloodingNetwork.node[120].nic.mac1609_4 totalBusyTime 0.005849
scalar FloodingNetwork.node[120].nic.mac1609_4 retriesExceeded:count 0
attr source org_car2x_veins_modules_mac_sigRetriesExceeded
scalar FloodingNetwork.node[120].nic.mac1609_4 sentAcks:count 0
attr source org_car2x_veins_modules_mac_sigSentAck
scalar FloodingNetwork.node[120].nic.mac1609_4 sentPackets:count 25
attr source org_car2x_veins_modules_mac_sigSentPacket
scalar FloodingNetwork.node[120].nic.mac1609_4 collisions:count 0
attr source org_car2x_veins_modules_mac_sigCollision
scalar FloodingNetwork.node[120].nic.mac1609_4 channelBusy:timeavg 0.0002358467082516
attr source org_car2x_veins_modules_mac_sigChannelBusy
scalar FloodingNetwork.node[120].veinsmobility startTime 1.2
scalar FloodingNetwork.node[120].veinsmobility totalTime 24.8
scalar FloodingNetwork.node[120].veinsmobility stopTime 26.000006933997
scalar FloodingNetwork.node[120].veinsmobility minSpeed 5.7630476505415
scalar FloodingNetwork.node[120].veinsmobility maxSpeed 15.149724467815
scalar FloodingNetwork.node[120].veinsmobility totalDistance 238.66686313725
scalar FloodingNetwork.node[120].veinsmobility totalCO2Emission 73.600739669218
scalar FloodingNetwork.node[121].appl generatedWSMs 0
scalar FloodingNetwork.node[121].appl receivedWSMs 0
scalar FloodingNetwork.node[121].appl generatedBSMs 25
scalar FloodingNetwork.node[121].appl receivedBSMs 0
scalar FloodingNetwork.node[121].appl generatedWSAs 0
scalar FloodingNetwork.node[121].appl receivedWSAs 0
scalar FloodingNetwork.node[121].appl #duplicates 0
scalar FloodingNetwork.node[121].appl #numSent 0
scalar FloodingNetwork.node[121].nic.phy80211p busyTime 3.7741924931355e-05
scalar FloodingNetwork.node[121].nic.mac1609_4 ReceivedUnicastPackets 0
scalar FloodingNetwork.node[121].nic.mac1609_4 ReceivedBroadcasts 9
scalar FloodingNetwork.node[121].nic.mac1609_4 SentPackets 25
scalar FloodingNetwork.node[121].nic.mac1609_4 SentAcknowledgements 0
scalar FloodingNetwork.node[121].nic.mac1609_4 RetriesExceeded 0
scalar FloodingNetwork.node[121].nic.mac1609_4 SNIRLostPackets 0
scalar FloodingNetwork.node[121].nic.mac1609_4 RXTXLostPackets 0
scalar FloodingNetwork.node[121].nic.mac1609_4 TotalLostPackets 0
scalar FloodingNetwork.node[121].nic.mac1609_4 DroppedPacketsInMac 0
scalar FloodingNetwork.node[121].nic.mac1609_4 TooLittleTime 0
scalar FloodingNetwork.node[121].nic.mac1609_4 TimesIntoBackoff 25
scalar FloodingNetwork.node[121].nic.mac1609_4 SlotsBackoff 30
scalar FloodingNetwork.node[121].nic.mac1609_4 NumInternalContention 0
scalar FloodingNetwork.node[121].nic.mac1609_4 totalBusyTime 0.003561
scalar FloodingNetwork.node[121].nic.mac1609_4 retriesExceeded:count 0
attr source org_car2x_veins_modules_mac_sigRetriesExceeded
scalar FloodingNetwork.node[121].nic.mac1609_4 sentAcks:count 0
attr source org_car2x_veins_modules_mac_sigSentAck
scalar FloodingNetwork.node[121].nic.mac1609_4 sentPackets:count 25
attr source org_car2x_veins_modules_mac_sigSentPacket
scalar FloodingNetwork.node[121].nic.mac1609_4 collisions:count 0
attr source org_car2x_veins_modules_mac_sigCollision
scalar FloodingNetwork.node[121].nic.mac1609_4 channelBusy:timeavg 0.00014358866953051
attr source org_car2x_veins_modules_mac_sigChannelBusy
scalar FloodingNetwork.node[121].veinsmobility startTime 1.2
scalar FloodingNetwork.node[121].veinsmobility totalTime 24.8
scalar FloodingNetwork.node[121].veinsmobility stopTime 26.000006933997
scalar FloodingNetwork.node[121].veinsmobility minSpeed 5.7551691355577
scalar FloodingNetwork.node[121].veinsmobility maxSpeed 13.991107891117
scalar FloodingNetwork.node[121].veinsmobility totalDistance 238.04194125538
scalar FloodingNetwork.node[121].veinsmobility totalCO2Emission 72.821715906097
scalar FloodingNetwork.node[122].appl generatedWSMs 0
scalar FloodingNetwork.node[122].appl receivedWSMs 0
scalar FloodingNetwork.node[122].appl generatedBSMs 25
scalar FloodingNetwork.node[122].appl receivedBSMs 0
scalar FloodingNetwork.node[122].appl generatedWSAs 0
scalar FloodingNetwork.node[122].appl receivedWSAs 0
scalar FloodingNetwork.node[122].appl #duplicates 0
scalar FloodingNetwork.node[122].appl #numSent 0
scalar FloodingNetwork.node[122].nic.phy80211p busyTime 0
scalar FloodingNetwork.node[122].nic.mac1609_4 ReceivedUnicastPackets 0
scalar FloodingNetwork.node[122].nic.mac1609_4 ReceivedBroadcasts 0
scalar FloodingNetwork.node[122].nic.mac1609_4 SentPackets 25
scalar FloodingNetwork.node[122].nic.mac1609_4 SentAcknowledgements 0
scalar FloodingNetwork.node[122].nic.mac1609_4 RetriesExceeded 0
scalar FloodingNetwork.node[122].nic.mac1609_4 SNIRLostPackets 0
scalar FloodingNetwork.node[122].nic.mac1609_4 RXTXLostPackets 0
scalar FloodingNetwork.node[122].nic.mac1609_4 TotalLostPackets 0
scalar FloodingNetwork.node[122].nic.mac1609_4 DroppedPacketsInMac 0
scalar FloodingNetwork.node[122].nic.mac1609_4 TooLittleTime 0
scalar FloodingNetwork.node[122].nic.mac1609_4 TimesIntoBackoff 25
scalar FloodingNetwork.node[122].nic.mac1609_4 SlotsBackoff 36
scalar FloodingNetwork.node[122].nic.mac1609_4 NumInternalContention 0
scalar FloodingNetwork.node[122].nic.mac1609_4 totalBusyTime 0.002625
scalar FloodingNetwork.node[122].nic.mac1609_4 retriesExceeded:count 0
attr source org_car2x_veins_modules_mac_sigRetriesExceeded
scalar FloodingNetwork.node[122].nic.mac1609_4 sentAcks:count 0
attr source org_car2x_veins_modules_mac_sigSentAck
scalar FloodingNetwork.node[122].nic.mac1609_4 sentPackets:count 25
attr source org_car2x_veins_modules_mac_sigSentPacket
scalar FloodingNetwork.node[122].nic.mac1609_4 collisions:count 0
attr source org_car2x_veins_modules_mac_sigCollision
scalar FloodingNetwork.node[122].nic.mac1609_4 channelBusy:timeavg 0.00010584674459915
attr source org_car2x_veins_modules_mac_sigChannelBusy
scalar FloodingNetwork.node[122].veinsmobility startTime 1.2
scalar FloodingNetwork.node[122].veinsmobility totalTime 24.8
scalar FloodingNetwork.node[122].veinsmobility stopTime 26.000006933997
scalar FloodingNetwork.node[122].veinsmobility minSpeed 5.7442023985366
scalar FloodingNetwork.node[122].veinsmobility maxSpeed 13.613901120286
scalar FloodingNetwork.node[122].veinsmobility totalDistance 292.96389703694
scalar FloodingNetwork.node[122].veinsmobility totalCO2Emission 60.479188896937
scalar FloodingNetwork.node[123].appl generatedWSMs 0
scalar FloodingNetwork.node[123].appl receivedWSMs 0
scalar FloodingNetwork.node[123].appl generatedBSMs 24
scalar FloodingNetwork.node[123].appl receivedBSMs 0
scalar FloodingNetwork.node[123].appl generatedWSAs 0
scalar FloodingNetwork.node[123].appl receivedWSAs 0
scalar FloodingNetwork.node[123].appl #duplicates 0
scalar FloodingNetwork.node[123].appl #numSent 0
scalar FloodingNetwork.node[123].nic.phy80211p busyTime 0.00020548381351516
scalar FloodingNetwork.node[123].nic.mac1609_4 ReceivedUnicastPackets 0
scalar FloodingNetwork.node[123].nic.mac1609_4 ReceivedBroadcasts 45
scalar FloodingNetwork.node[123].nic.mac1609_4 SentPackets 24
scalar FloodingNetwork.node[123].nic.mac1609_4 SentAcknowledgements 0
scalar FloodingNetwork.node[123].nic.mac1609_4 RetriesExceeded 0
scalar FloodingNetwork.node[123].nic.mac1609_4 SNIRLostPackets 4
scalar FloodingNetwork.node[123].nic.mac1609_4 RXTXLostPackets 0
scalar FloodingNetwork.node[123].nic.mac1609_4 TotalLostPackets 4
scalar FloodingNetwork.node[123].nic.mac1609_4 DroppedPacketsInMac 0
scalar FloodingNetwork.node[123].nic.mac1609_4 TooLittleTime 0
scalar FloodingNetwork.node[123].nic.mac1609_4 TimesIntoBackoff 24
scalar FloodingNetwork.node[123].nic.mac1609_4 SlotsBackoff 42
scalar FloodingNetwork.node[123].nic.mac1609_4 NumInternalContention 0
scalar FloodingNetwork.node[123].nic.mac1609_4 totalBusyTime 0.007616
scalar FloodingNetwork.node[123].nic.mac1609_4 retriesExceeded:count 0
attr source org_car2x_veins_modules_mac_sigRetriesExceeded
scalar FloodingNetwork.node[123].nic.mac1609_4 sentAcks:count 0
attr source org_car2x_veins_modules_mac_sigSentAck
scalar FloodingNetwork.node[123].nic.mac1609_4 sentPackets:count 24
attr source org_car2x_veins_modules_mac_sigSentPacket
scalar FloodingNetwork.node[123].nic.mac1609_4 collisions:count 0
attr source org_car2x_veins_modules_mac_sigCollision
scalar FloodingNetwork.node[123].nic.mac1609_4 channelBusy:timeavg 0.00030709668833034
attr source org_car2x_veins_modules_mac_sigChannelBusy
scalar FloodingNetwork.node[123].veinsmobility startTime 1.2
scalar FloodingNetwork.node[123].veinsmobility totalTime 24.8
scalar FloodingNetwork.node[123].veinsmobility stopTime 26.000006933997
scalar FloodingNetwork.node[123].veinsmobility minSpeed 5.8138377881272
scalar FloodingNetwork.node[123].veinsmobility maxSpeed 13.367525302653
scalar FloodingNetwork.node[123].veinsmobility totalDistance 296.77333413163
scalar FloodingNetwork.node[123].veinsmobility totalCO2Emission 60.289610052644
scalar FloodingNetwork.node[147].appl generatedWSMs 0
scalar FloodingNetwork.node[147].appl receivedWSMs 0
scalar FloodingNetwork.node[147].appl generatedBSMs 23
scalar FloodingNetwork.node[147].appl receivedBSMs 0
scalar FloodingNetwork.node[147].appl generatedWSAs 0
scalar FloodingNetwork.node[147].appl receivedWSAs 0
scalar FloodingNetwork.node[147].appl #duplicates 0
scalar FloodingNetwork.node[147].appl #numSent 0
scalar FloodingNetwork.node[147].nic.phy80211p busyTime 0.00020978534529395
scalar FloodingNetwork.node[147].nic.mac1609_4 ReceivedUnicastPackets 0
scalar FloodingNetwork.node[147].nic.mac1609_4 ReceivedBroadcasts 42
scalar FloodingNetwork.node[147].nic.mac1609_4 SentPackets 23
scalar FloodingNetwork.node[147].nic.mac1609_4 SentAcknowledgements 0
scalar FloodingNetwork.node[147].nic.mac1609_4 RetriesExceeded 0
scalar FloodingNetwork.node[147].nic.mac1609_4 SNIRLostPackets 5
scalar FloodingNetwork.node[147].nic.mac1609_4 RXTXLostPackets 0
scalar FloodingNetwork.node[147].nic.mac1609_4 TotalLostPackets 5
scalar FloodingNetwork.node[147].nic.mac1609_4 DroppedPacketsInMac 0
scalar FloodingNetwork.node[147].nic.mac1609_4 TooLittleTime 0
scalar FloodingNetwork.node[147].nic.mac1609_4 TimesIntoBackoff 23
scalar FloodingNetwork.node[147].nic.mac1609_4 SlotsBackoff 46
scalar FloodingNetwork.node[147].nic.mac1609_4 NumInternalContention 0
scalar FloodingNetwork.node[147].nic.mac1609_4 totalBusyTime 0.007303
scalar FloodingNetwork.node[147].nic.mac1609_4 retriesExceeded:count 0
attr source org_car2x_veins_modules_mac_sigRetriesExceeded
scalar FloodingNetwork.node[147].nic.mac1609_4 sentAcks:count 0
attr source org_car2x_veins_modules_mac_sigSentAck
scalar FloodingNetwork.node[147].nic.mac1609_4 sentPackets:count 23
attr source org_car2x_veins_modules_mac_sigSentPacket
scalar FloodingNetwork.node[147].nic.mac1609_4 collisions:count 0
attr source org_car2x_veins_modules_mac_sigCollision
scalar FloodingNetwork.node[147].nic.mac1609_4 channelBusy:timeavg 0.00031343338311819
attr source org_car2x_veins_modules_mac_sigChannelBusy
scalar FloodingNetwork.node[147].veinsmobility startTime 2.7
scalar FloodingNetwork.node[147].veinsmobility totalTime 23.3
scalar FloodingNetwork.node[147].veinsmobility stopTime 26.000006933997
scalar FloodingNetwork.node[147].veinsmobility minSpeed 6.0447578866365
scalar FloodingNetwork.node[147].veinsmobility maxSpeed 13.083383997142
scalar FloodingNetwork.node[147].veinsmobility totalDistance 259.13761504335
scalar FloodingNetwork.node[147].veinsmobility totalCO2Emission 61.592999486178
scalar FloodingNetwork.manager roiArea 0
scalar FloodingNetwork.rsu.appl generatedWSMs 0
scalar FloodingNetwork.rsu.appl receivedWSMs 0
scalar FloodingNetwork.rsu.appl generatedBSMs 1
scalar FloodingNetwork.rsu.appl receivedBSMs 0
scalar FloodingNetwork.rsu.appl generatedWSAs 0
scalar FloodingNetwork.rsu.appl receivedWSAs 0
scalar FloodingNetwork.rsu.nic.phy80211p busyTime 9.7846127751355e-05
scalar FloodingNetwork.rsu.nic.mac1609_4 ReceivedUnicastPackets 0
scalar FloodingNetwork.rsu.nic.mac1609_4 ReceivedBroadcasts 24
scalar FloodingNetwork.rsu.nic.mac1609_4 SentPackets 1
scalar FloodingNetwork.rsu.nic.mac1609_4 SentAcknowledgements 0
scalar FloodingNetwork.rsu.nic.mac1609_4 RetriesExceeded 0
scalar FloodingNetwork.rsu.nic.mac1609_4 SNIRLostPackets 1
scalar FloodingNetwork.rsu.nic.mac1609_4 RXTXLostPackets 0
scalar FloodingNetwork.rsu.nic.mac1609_4 TotalLostPackets 1
scalar FloodingNetwork.rsu.nic.mac1609_4 DroppedPacketsInMac 0
scalar FloodingNetwork.rsu.nic.mac1609_4 TooLittleTime 0
scalar FloodingNetwork.rsu.nic.mac1609_4 TimesIntoBackoff 2
scalar FloodingNetwork.rsu.nic.mac1609_4 SlotsBackoff 1
scalar FloodingNetwork.rsu.nic.mac1609_4 NumInternalContention 0
scalar FloodingNetwork.rsu.nic.mac1609_4 totalBusyTime 0.002593
scalar FloodingNetwork.rsu.nic.mac1609_4 retriesExceeded:count 0
attr source org_car2x_veins_modules_mac_sigRetriesExceeded
scalar FloodingNetwork.rsu.nic.mac1609_4 sentAcks:count 0
attr source org_car2x_veins_modules_mac_sigSentAck
scalar FloodingNetwork.rsu.nic.mac1609_4 sentPackets:count 1
attr source org_car2x_veins_modules_mac_sigSentPacket
scalar FloodingNetwork.rsu.nic.mac1609_4 collisions:count 0
attr source org_car2x_veins_modules_mac_sigCollision
scalar FloodingNetwork.rsu.nic.mac1609_4 channelBusy:timeavg 9.9730742633359e-05
attr source org_car2x_veins_modules_mac_sigChannelBusy

